/*---------------------------------------------------------------------------*\
| =========                 |                                                 |
| \\      /  F ield         | OpenFOAM: The Open Source CFD Toolbox           |
|  \\    /   O peration     | Version:  v1812                                 |
|   \\  /    A nd           | Web:      www.OpenFOAM.com                      |
|    \\/     M anipulation  |                                                 |
\*---------------------------------------------------------------------------*/
Build  : v1812 OPENFOAM=1812
Arch   : "LSB;label=32;scalar=64"
Exec   : simpleFoam
Date   : Nov 04 2022
Time   : 16:28:07
Host   : gl-login2.arc-ts.umich.edu
PID    : 2489421
I/O    : uncollated
Case   : /home/jbjb/DAFoam_Codes/jbdafoam/NERS570_project
nProcs : 1
trapFpe: Floating point exception trapping enabled (FOAM_SIGFPE).
fileModificationChecking : Monitoring run-time modified files using timeStampMaster (fileModificationSkew 10)
allowSystemOperations : Allowing user-supplied system call operations

// * * * * * * * * * * * * * * * * * * * * * * * * * * * * * * * * * * * * * //
Create time

Create mesh for time = 0


SIMPLE: no convergence criteria found. Calculations will run for 1000 steps.

Reading field p

--> FOAM Warning : 
    From function const Foam::HashTable<Foam::List<int> >& Foam::polyBoundaryMesh::groupPatchIDs() const
    in file meshes/polyMesh/polyBoundaryMesh/polyBoundaryMesh.C at line 507
    Removed patchGroup 'wall' which clashes with patch 2 of the same name.
Reading field U

Reading/calculating face flux field phi

Selecting incompressible transport model Newtonian
Selecting turbulence model type RAS
Selecting RAS turbulence model kOmegaSST
Selecting patchDistMethod meshWave
RAS
{
    RASModel        kOmegaSST;
    turbulence      on;
    printCoeffs     on;
    alphaK1         0.85;
    alphaK2         1;
    alphaOmega1     0.5;
    alphaOmega2     0.856;
    gamma1          0.5555555555555556;
    gamma2          0.44;
    beta1           0.075;
    beta2           0.0828;
    betaStar        0.09;
    a1              0.31;
    b1              1;
    c1              10;
    F3              false;
    decayControl    false;
    kInf            0;
    omegaInf        0;
}

No MRF models present

No finite volume options present

Starting time loop

Time = 1

smoothSolver:  Solving for Ux, Initial residual = 0.9999999691271585, Final residual = 4.078388823673792e-05, No Iterations 4
smoothSolver:  Solving for Uy, Initial residual = 0.1060908261458805, Final residual = 8.077847230436619e-06, No Iterations 4
smoothSolver:  Solving for Uz, Initial residual = 0.9999135879352373, Final residual = 0.000174174643234153, No Iterations 4
GAMG:  Solving for p, Initial residual = 1, Final residual = 0.0007502780576152992, No Iterations 5
GAMG:  Solving for p, Initial residual = 6.322141766773748e-05, Final residual = 4.877724255057515e-08, No Iterations 7
GAMG:  Solving for p, Initial residual = 4.877270474752089e-08, Final residual = 6.296357973814684e-09, No Iterations 2
GAMG:  Solving for p, Initial residual = 6.296357613594371e-09, Final residual = 6.296357613594371e-09, No Iterations 0
time step continuity errors : sum local = 1.841634338107323e-09, global = -2.297228608209935e-10, cumulative = -2.297228608209935e-10
smoothSolver:  Solving for omega, Initial residual = 0.0129128568021947, Final residual = 3.021923207809554e-06, No Iterations 4
smoothSolver:  Solving for k, Initial residual = 0.9999999999994515, Final residual = 8.190588087242297e-05, No Iterations 4
ExecutionTime = 0.1 s  ClockTime = 0 s

Time = 2

smoothSolver:  Solving for Ux, Initial residual = 0.5845664873852412, Final residual = 4.109823007852246e-05, No Iterations 4
smoothSolver:  Solving for Uy, Initial residual = 0.43773767352865, Final residual = 1.044012023263304e-05, No Iterations 4
smoothSolver:  Solving for Uz, Initial residual = 0.4276742551104764, Final residual = 7.064241701801957e-06, No Iterations 4
GAMG:  Solving for p, Initial residual = 0.2037390234743888, Final residual = 2.256628367956714e-05, No Iterations 4
GAMG:  Solving for p, Initial residual = 7.575904755059219e-06, Final residual = 3.762741505281129e-09, No Iterations 5
GAMG:  Solving for p, Initial residual = 3.762580380504074e-09, Final residual = 3.762580380504074e-09, No Iterations 0
GAMG:  Solving for p, Initial residual = 3.762580380504074e-09, Final residual = 3.762580380504074e-09, No Iterations 0
time step continuity errors : sum local = 1.383828869000101e-09, global = -4.834381292864495e-12, cumulative = -2.34557242113858e-10
smoothSolver:  Solving for omega, Initial residual = 0.003191849363323558, Final residual = 4.227023363125059e-08, No Iterations 4
smoothSolver:  Solving for k, Initial residual = 0.3520259276374501, Final residual = 7.081281301769685e-06, No Iterations 4
ExecutionTime = 0.11 s  ClockTime = 0 s

Time = 3

smoothSolver:  Solving for Ux, Initial residual = 0.6577965476587259, Final residual = 8.293862769441458e-06, No Iterations 4
smoothSolver:  Solving for Uy, Initial residual = 0.3727716766129492, Final residual = 1.721677030176e-06, No Iterations 4
smoothSolver:  Solving for Uz, Initial residual = 0.2039267578929087, Final residual = 0.0001164042058834665, No Iterations 2
GAMG:  Solving for p, Initial residual = 0.1078473094491022, Final residual = 8.665716274721396e-05, No Iterations 4
GAMG:  Solving for p, Initial residual = 4.717316798875371e-05, Final residual = 2.623808196281262e-08, No Iterations 6
GAMG:  Solving for p, Initial residual = 2.623533180299851e-08, Final residual = 7.5602786925848e-09, No Iterations 1
GAMG:  Solving for p, Initial residual = 7.560278441109545e-09, Final residual = 7.560278441109545e-09, No Iterations 0
time step continuity errors : sum local = 2.234876739711726e-09, global = -4.227216249676735e-10, cumulative = -6.572788670815315e-10
smoothSolver:  Solving for omega, Initial residual = 0.001978661202677668, Final residual = 1.665995652569363e-06, No Iterations 2
smoothSolver:  Solving for k, Initial residual = 0.1338726154488602, Final residual = 8.85647204142475e-07, No Iterations 4
ExecutionTime = 0.11 s  ClockTime = 0 s

Time = 4

smoothSolver:  Solving for Ux, Initial residual = 0.6837952536389775, Final residual = 0.0002679255851787702, No Iterations 2
smoothSolver:  Solving for Uy, Initial residual = 0.1958374511933506, Final residual = 8.068422751926264e-05, No Iterations 2
smoothSolver:  Solving for Uz, Initial residual = 0.1397199119066547, Final residual = 3.661649861551714e-05, No Iterations 2
GAMG:  Solving for p, Initial residual = 0.06115101661976027, Final residual = 1.746707581637296e-05, No Iterations 5
GAMG:  Solving for p, Initial residual = 1.704054913085293e-05, Final residual = 1.045920626792223e-08, No Iterations 6
GAMG:  Solving for p, Initial residual = 1.045889325104831e-08, Final residual = 3.047816606632632e-09, No Iterations 1
GAMG:  Solving for p, Initial residual = 3.047816563501717e-09, Final residual = 3.047816563501717e-09, No Iterations 0
time step continuity errors : sum local = 6.03384666460726e-10, global = -1.126863687411476e-10, cumulative = -7.69965235822679e-10
smoothSolver:  Solving for omega, Initial residual = 0.001482824202014511, Final residual = 1.186507363777579e-07, No Iterations 2
smoothSolver:  Solving for k, Initial residual = 0.05042876195485851, Final residual = 1.588464573995721e-05, No Iterations 2
ExecutionTime = 0.11 s  ClockTime = 0 s

Time = 5

smoothSolver:  Solving for Ux, Initial residual = 0.7163985129581281, Final residual = 0.0002529097426416644, No Iterations 2
smoothSolver:  Solving for Uy, Initial residual = 0.1626850508302549, Final residual = 4.44570281525536e-05, No Iterations 2
smoothSolver:  Solving for Uz, Initial residual = 0.09769530658517821, Final residual = 1.506336790767879e-05, No Iterations 2
GAMG:  Solving for p, Initial residual = 0.08794899678505147, Final residual = 1.708300571623788e-05, No Iterations 4
GAMG:  Solving for p, Initial residual = 4.455998783651225e-05, Final residual = 3.37427155682015e-08, No Iterations 5
GAMG:  Solving for p, Initial residual = 3.374693678236201e-08, Final residual = 3.013039417618282e-09, No Iterations 2
GAMG:  Solving for p, Initial residual = 3.013039340242587e-09, Final residual = 3.013039340242587e-09, No Iterations 0
time step continuity errors : sum local = 1.926382096280175e-10, global = -3.0018692512952e-11, cumulative = -7.99983928335631e-10
smoothSolver:  Solving for omega, Initial residual = 0.001648018280790193, Final residual = 9.048502995629143e-08, No Iterations 2
smoothSolver:  Solving for k, Initial residual = 0.08264058860360694, Final residual = 1.316952840896351e-05, No Iterations 2
ExecutionTime = 0.11 s  ClockTime = 0 s

Time = 6

smoothSolver:  Solving for Ux, Initial residual = 0.6508511700603332, Final residual = 0.0002823792930571779, No Iterations 2
smoothSolver:  Solving for Uy, Initial residual = 0.1494505265261809, Final residual = 4.008597876489208e-05, No Iterations 2
smoothSolver:  Solving for Uz, Initial residual = 0.1190975731067392, Final residual = 3.590870398504454e-05, No Iterations 2
GAMG:  Solving for p, Initial residual = 0.1642492660528304, Final residual = 5.004322521594701e-05, No Iterations 4
GAMG:  Solving for p, Initial residual = 7.164860737413089e-05, Final residual = 4.316206376585067e-08, No Iterations 6
GAMG:  Solving for p, Initial residual = 4.315206922527636e-08, Final residual = 3.783072972027603e-09, No Iterations 2
GAMG:  Solving for p, Initial residual = 3.78307271312283e-09, Final residual = 3.78307271312283e-09, No Iterations 0
time step continuity errors : sum local = 3.239439327888126e-10, global = 5.927949077650457e-11, cumulative = -7.407044375591265e-10
smoothSolver:  Solving for omega, Initial residual = 0.001046699179468951, Final residual = 1.389897626662439e-07, No Iterations 2
smoothSolver:  Solving for k, Initial residual = 0.06805186945452323, Final residual = 1.103008721147696e-05, No Iterations 2
ExecutionTime = 0.12 s  ClockTime = 0 s

Time = 7

smoothSolver:  Solving for Ux, Initial residual = 0.3470433286323111, Final residual = 0.0001419846773863449, No Iterations 2
smoothSolver:  Solving for Uy, Initial residual = 0.1283380200613556, Final residual = 2.987409608930876e-05, No Iterations 2
smoothSolver:  Solving for Uz, Initial residual = 0.1595140327785861, Final residual = 4.760504935190483e-05, No Iterations 2
GAMG:  Solving for p, Initial residual = 0.2480428824686038, Final residual = 0.0001091619774177666, No Iterations 4
GAMG:  Solving for p, Initial residual = 6.013704013172443e-05, Final residual = 3.681595563346087e-08, No Iterations 6
GAMG:  Solving for p, Initial residual = 3.680961623336046e-08, Final residual = 3.186316323995158e-09, No Iterations 2
GAMG:  Solving for p, Initial residual = 3.186316118113376e-09, Final residual = 3.186316118113376e-09, No Iterations 0
time step continuity errors : sum local = 4.242361766159779e-10, global = 7.823211498165356e-11, cumulative = -6.62472322577473e-10
smoothSolver:  Solving for omega, Initial residual = 0.0007845075368505991, Final residual = 8.637123971215349e-08, No Iterations 2
smoothSolver:  Solving for k, Initial residual = 0.06163152360851158, Final residual = 8.839960911664367e-06, No Iterations 2
ExecutionTime = 0.12 s  ClockTime = 0 s

Time = 8

smoothSolver:  Solving for Ux, Initial residual = 0.1643229253008469, Final residual = 3.816245786003348e-05, No Iterations 2
smoothSolver:  Solving for Uy, Initial residual = 0.09293130302720563, Final residual = 2.329062127189883e-05, No Iterations 2
smoothSolver:  Solving for Uz, Initial residual = 0.1896472317763397, Final residual = 6.475060403629744e-05, No Iterations 2
GAMG:  Solving for p, Initial residual = 0.5629020104597885, Final residual = 0.0002615467121348203, No Iterations 4
GAMG:  Solving for p, Initial residual = 4.677947283722195e-05, Final residual = 2.931116018892849e-08, No Iterations 6
GAMG:  Solving for p, Initial residual = 2.930782997161191e-08, Final residual = 8.614009222910937e-09, No Iterations 1
GAMG:  Solving for p, Initial residual = 8.614008877646016e-09, Final residual = 8.614008877646016e-09, No Iterations 0
time step continuity errors : sum local = 1.122622127877271e-09, global = 2.076597669657323e-10, cumulative = -4.548125556117406e-10
smoothSolver:  Solving for omega, Initial residual = 0.0008447387397792299, Final residual = 7.080968043876477e-08, No Iterations 2
smoothSolver:  Solving for k, Initial residual = 0.057439437755, Final residual = 8.350312472268005e-06, No Iterations 2
ExecutionTime = 0.12 s  ClockTime = 0 s

Time = 9

smoothSolver:  Solving for Ux, Initial residual = 0.4097896876759441, Final residual = 0.0001976298461740345, No Iterations 2
smoothSolver:  Solving for Uy, Initial residual = 0.05293449828618397, Final residual = 1.804994966501263e-05, No Iterations 2
smoothSolver:  Solving for Uz, Initial residual = 0.1952258816823737, Final residual = 0.0001219290584936759, No Iterations 2
GAMG:  Solving for p, Initial residual = 0.2440809387616256, Final residual = 6.607190590359899e-05, No Iterations 4
GAMG:  Solving for p, Initial residual = 3.457197255440008e-05, Final residual = 2.096689734865125e-08, No Iterations 6
GAMG:  Solving for p, Initial residual = 2.096533607447056e-08, Final residual = 6.191962798612398e-09, No Iterations 1
GAMG:  Solving for p, Initial residual = 6.191962621420389e-09, Final residual = 6.191962621420389e-09, No Iterations 0
time step continuity errors : sum local = 5.688094002153042e-10, global = 1.046851984676228e-10, cumulative = -3.501273571441178e-10
smoothSolver:  Solving for omega, Initial residual = 0.0007265809130978677, Final residual = 7.052984294847059e-08, No Iterations 2
smoothSolver:  Solving for k, Initial residual = 0.05718692000303212, Final residual = 1.031016258033507e-05, No Iterations 2
ExecutionTime = 0.12 s  ClockTime = 0 s

Time = 10

smoothSolver:  Solving for Ux, Initial residual = 0.54811275789999, Final residual = 0.0004508274674477032, No Iterations 2
smoothSolver:  Solving for Uy, Initial residual = 0.04129630429506567, Final residual = 1.458282674838824e-05, No Iterations 2
smoothSolver:  Solving for Uz, Initial residual = 0.1622256108698632, Final residual = 2.538729177892031e-07, No Iterations 4
GAMG:  Solving for p, Initial residual = 0.184686137080542, Final residual = 0.0001126871384710202, No Iterations 3
GAMG:  Solving for p, Initial residual = 0.0001515375087405007, Final residual = 5.294496794445368e-08, No Iterations 6
GAMG:  Solving for p, Initial residual = 5.296279822288403e-08, Final residual = 4.635347556029908e-09, No Iterations 2
GAMG:  Solving for p, Initial residual = 4.635348025663894e-09, Final residual = 4.635348025663894e-09, No Iterations 0
time step continuity errors : sum local = 2.011989784524548e-10, global = -3.759637411223244e-11, cumulative = -3.877237312563502e-10
smoothSolver:  Solving for omega, Initial residual = 0.0006600005460882097, Final residual = 2.427895243983352e-07, No Iterations 2
smoothSolver:  Solving for k, Initial residual = 0.04558340869066995, Final residual = 1.275577511801666e-05, No Iterations 2
ExecutionTime = 0.12 s  ClockTime = 0 s

Time = 11

smoothSolver:  Solving for Ux, Initial residual = 0.535959889178143, Final residual = 0.0003837077646602067, No Iterations 2
smoothSolver:  Solving for Uy, Initial residual = 0.08241404372753386, Final residual = 4.452263780900794e-05, No Iterations 2
smoothSolver:  Solving for Uz, Initial residual = 0.105757498017368, Final residual = 9.80953276839762e-05, No Iterations 2
GAMG:  Solving for p, Initial residual = 0.1881468235115204, Final residual = 8.197159848949264e-05, No Iterations 4
GAMG:  Solving for p, Initial residual = 0.0002002219904649525, Final residual = 1.344392493587906e-07, No Iterations 6
GAMG:  Solving for p, Initial residual = 1.343747066782093e-07, Final residual = 3.581421190844326e-09, No Iterations 3
GAMG:  Solving for p, Initial residual = 3.581420417899421e-09, Final residual = 3.581420417899421e-09, No Iterations 0
time step continuity errors : sum local = 7.66341663215661e-11, global = -1.399336015468192e-11, cumulative = -4.017170914110322e-10
smoothSolver:  Solving for omega, Initial residual = 0.0006767814441073423, Final residual = 7.751378093806925e-08, No Iterations 2
smoothSolver:  Solving for k, Initial residual = 0.03417550301529101, Final residual = 2.963859518704446e-05, No Iterations 2
ExecutionTime = 0.13 s  ClockTime = 0 s

Time = 12

smoothSolver:  Solving for Ux, Initial residual = 0.2755881509034018, Final residual = 1.307203305458796e-06, No Iterations 4
smoothSolver:  Solving for Uy, Initial residual = 0.1657434728721021, Final residual = 3.058796887850969e-07, No Iterations 4
smoothSolver:  Solving for Uz, Initial residual = 0.06091106322117075, Final residual = 1.693455032148348e-07, No Iterations 4
GAMG:  Solving for p, Initial residual = 0.2366779339937475, Final residual = 0.000169918520131626, No Iterations 4
GAMG:  Solving for p, Initial residual = 0.0001403620303490049, Final residual = 1.085697164363918e-07, No Iterations 6
GAMG:  Solving for p, Initial residual = 1.085337920579724e-07, Final residual = 3.04966789427207e-09, No Iterations 3
GAMG:  Solving for p, Initial residual = 3.049667307037467e-09, Final residual = 3.049667307037467e-09, No Iterations 0
time step continuity errors : sum local = 1.315787654631116e-10, global = -2.366441902360014e-11, cumulative = -4.253815104346323e-10
smoothSolver:  Solving for omega, Initial residual = 0.001313085215371439, Final residual = 1.145823691100164e-06, No Iterations 2
smoothSolver:  Solving for k, Initial residual = 0.04072728384687132, Final residual = 1.942569010040711e-07, No Iterations 4
ExecutionTime = 0.13 s  ClockTime = 0 s

Time = 13

smoothSolver:  Solving for Ux, Initial residual = 0.1344874625627288, Final residual = 1.048700372411502e-06, No Iterations 4
smoothSolver:  Solving for Uy, Initial residual = 0.231756400163953, Final residual = 5.910980183670466e-07, No Iterations 4
smoothSolver:  Solving for Uz, Initial residual = 0.04395584049918235, Final residual = 3.967160909768997e-05, No Iterations 2
GAMG:  Solving for p, Initial residual = 0.3423852562793138, Final residual = 0.0003145736330128506, No Iterations 4
GAMG:  Solving for p, Initial residual = 0.0001090004393166857, Final residual = 8.754703336155298e-08, No Iterations 6
GAMG:  Solving for p, Initial residual = 8.752521122429591e-08, Final residual = 8.175938023721541e-09, No Iterations 2
GAMG:  Solving for p, Initial residual = 8.175936782631434e-09, Final residual = 8.175936782631434e-09, No Iterations 0
time step continuity errors : sum local = 3.847291292167752e-10, global = -6.924355327584173e-11, cumulative = -4.94625063710474e-10
smoothSolver:  Solving for omega, Initial residual = 0.001415511613512173, Final residual = 4.124361211865517e-09, No Iterations 4
smoothSolver:  Solving for k, Initial residual = 0.05556171737824755, Final residual = 3.545856501835208e-07, No Iterations 4
ExecutionTime = 0.13 s  ClockTime = 0 s

Time = 14

smoothSolver:  Solving for Ux, Initial residual = 0.2445570761828492, Final residual = 6.302045460397179e-07, No Iterations 4
smoothSolver:  Solving for Uy, Initial residual = 0.2334530026345304, Final residual = 6.584984404670433e-07, No Iterations 4
smoothSolver:  Solving for Uz, Initial residual = 0.04636839046406858, Final residual = 1.0560111825667e-07, No Iterations 4
GAMG:  Solving for p, Initial residual = 0.3510724154848767, Final residual = 0.0002314770368983758, No Iterations 4
GAMG:  Solving for p, Initial residual = 8.02199728512623e-05, Final residual = 6.624797532824876e-08, No Iterations 6
GAMG:  Solving for p, Initial residual = 6.62366604819592e-08, Final residual = 6.247519009161298e-09, No Iterations 2
GAMG:  Solving for p, Initial residual = 6.24751828492009e-09, Final residual = 6.24751828492009e-09, No Iterations 0
time step continuity errors : sum local = 2.209793107457039e-10, global = -3.982849507229675e-11, cumulative = -5.344535587827708e-10
smoothSolver:  Solving for omega, Initial residual = 0.001510014036703929, Final residual = 2.873425844212716e-09, No Iterations 4
smoothSolver:  Solving for k, Initial residual = 0.07146101097255855, Final residual = 4.660690429943532e-07, No Iterations 4
ExecutionTime = 0.13 s  ClockTime = 0 s

Time = 15

smoothSolver:  Solving for Ux, Initial residual = 0.4396281348901601, Final residual = 6.168286999478781e-06, No Iterations 4
smoothSolver:  Solving for Uy, Initial residual = 0.1742773898184513, Final residual = 1.190725063163048e-06, No Iterations 4
smoothSolver:  Solving for Uz, Initial residual = 0.07125511695043832, Final residual = 5.270908510435371e-07, No Iterations 4
GAMG:  Solving for p, Initial residual = 0.2342725368731247, Final residual = 0.0001749932014747973, No Iterations 3
GAMG:  Solving for p, Initial residual = 0.0001612676258687592, Final residual = 1.252553813010806e-07, No Iterations 6
GAMG:  Solving for p, Initial residual = 1.251731229678133e-07, Final residual = 3.77341293177578e-09, No Iterations 3
GAMG:  Solving for p, Initial residual = 3.773412033500998e-09, Final residual = 3.773412033500998e-09, No Iterations 0
time step continuity errors : sum local = 6.629080369746688e-11, global = -1.183691327654372e-11, cumulative = -5.462904720593145e-10
smoothSolver:  Solving for omega, Initial residual = 0.002070534944535403, Final residual = 9.078220185052659e-09, No Iterations 4
smoothSolver:  Solving for k, Initial residual = 0.07724827803813898, Final residual = 1.243197797025277e-06, No Iterations 4
ExecutionTime = 0.13 s  ClockTime = 0 s

Time = 16

smoothSolver:  Solving for Ux, Initial residual = 0.5622240670389942, Final residual = 1.004563648635014e-05, No Iterations 4
smoothSolver:  Solving for Uy, Initial residual = 0.1147665764116528, Final residual = 6.94620230359282e-07, No Iterations 4
smoothSolver:  Solving for Uz, Initial residual = 0.1052860999636202, Final residual = 7.833021377945433e-07, No Iterations 4
GAMG:  Solving for p, Initial residual = 0.2241923705486646, Final residual = 8.869801763505528e-05, No Iterations 4
GAMG:  Solving for p, Initial residual = 0.000365101590286993, Final residual = 3.315277246906465e-07, No Iterations 6
GAMG:  Solving for p, Initial residual = 3.318164036641508e-07, Final residual = 3.136290768126222e-09, No Iterations 4
GAMG:  Solving for p, Initial residual = 3.136292767042857e-09, Final residual = 3.136292767042857e-09, No Iterations 0
time step continuity errors : sum local = 1.251749101536223e-11, global = 2.225621706760623e-12, cumulative = -5.440648503525539e-10
smoothSolver:  Solving for omega, Initial residual = 0.001605022587202561, Final residual = 7.254274970927405e-09, No Iterations 4
smoothSolver:  Solving for k, Initial residual = 0.07505841844109154, Final residual = 1.240354589631697e-06, No Iterations 4
ExecutionTime = 0.14 s  ClockTime = 0 s

Time = 17

smoothSolver:  Solving for Ux, Initial residual = 0.2967391439148647, Final residual = 4.523364784538934e-06, No Iterations 4
smoothSolver:  Solving for Uy, Initial residual = 0.09423362454528079, Final residual = 8.603363170515362e-05, No Iterations 2
smoothSolver:  Solving for Uz, Initial residual = 0.1623000873539748, Final residual = 9.836848843378632e-07, No Iterations 4
GAMG:  Solving for p, Initial residual = 0.2792830040575882, Final residual = 0.0001756547181122437, No Iterations 4
GAMG:  Solving for p, Initial residual = 0.0002247081084684746, Final residual = 2.011629364832295e-07, No Iterations 6
GAMG:  Solving for p, Initial residual = 2.010617257367764e-07, Final residual = 6.055167542197893e-09, No Iterations 3
GAMG:  Solving for p, Initial residual = 6.055165462640408e-09, Final residual = 6.055165462640408e-09, No Iterations 0
time step continuity errors : sum local = 5.916203348888974e-11, global = 1.053182085894377e-11, cumulative = -5.335330294936101e-10
smoothSolver:  Solving for omega, Initial residual = 0.00124907407910814, Final residual = 4.288023212439858e-09, No Iterations 4
smoothSolver:  Solving for k, Initial residual = 0.07849633388845849, Final residual = 1.074570227992666e-06, No Iterations 4
ExecutionTime = 0.14 s  ClockTime = 0 s

Time = 18

smoothSolver:  Solving for Ux, Initial residual = 0.1060658310729583, Final residual = 1.81718104348649e-06, No Iterations 4
smoothSolver:  Solving for Uy, Initial residual = 0.1090360685135861, Final residual = 4.096352892672397e-07, No Iterations 4
smoothSolver:  Solving for Uz, Initial residual = 0.2257976248156383, Final residual = 1.307692067811683e-06, No Iterations 4
GAMG:  Solving for p, Initial residual = 0.3804971273731168, Final residual = 0.0002770888271150486, No Iterations 4
GAMG:  Solving for p, Initial residual = 0.0001499365425059833, Final residual = 1.32797925703217e-07, No Iterations 6
GAMG:  Solving for p, Initial residual = 1.327492099428427e-07, Final residual = 3.978002121267667e-09, No Iterations 3
GAMG:  Solving for p, Initial residual = 3.978001136124153e-09, Final residual = 3.978001136124153e-09, No Iterations 0
time step continuity errors : sum local = 4.99997559519769e-11, global = 8.907063743314059e-12, cumulative = -5.24625965750296e-10
smoothSolver:  Solving for omega, Initial residual = 0.001002413917235595, Final residual = 2.98616579816315e-09, No Iterations 4
smoothSolver:  Solving for k, Initial residual = 0.0843342981237938, Final residual = 1.11099020167526e-06, No Iterations 4
ExecutionTime = 0.14 s  ClockTime = 0 s

Time = 19

smoothSolver:  Solving for Ux, Initial residual = 0.1294192794281376, Final residual = 1.038275540673248e-06, No Iterations 4
smoothSolver:  Solving for Uy, Initial residual = 0.1443211767319246, Final residual = 6.411320734032922e-07, No Iterations 4
smoothSolver:  Solving for Uz, Initial residual = 0.2576646610255073, Final residual = 1.683680213101979e-06, No Iterations 4
GAMG:  Solving for p, Initial residual = 0.5841653289085448, Final residual = 0.0004718656389976484, No Iterations 4
GAMG:  Solving for p, Initial residual = 0.0001000047888799195, Final residual = 8.75860324471194e-08, No Iterations 6
GAMG:  Solving for p, Initial residual = 8.756469874794811e-08, Final residual = 8.421740794385809e-09, No Iterations 2
GAMG:  Solving for p, Initial residual = 8.421739525724385e-09, Final residual = 8.421739525724385e-09, No Iterations 0
time step continuity errors : sum local = 8.619427374166486e-11, global = 1.530930183917113e-11, cumulative = -5.093166639111249e-10
smoothSolver:  Solving for omega, Initial residual = 0.0008287786570305246, Final residual = 2.696751094919916e-09, No Iterations 4
smoothSolver:  Solving for k, Initial residual = 0.08976851725137916, Final residual = 1.423872923008738e-06, No Iterations 4
ExecutionTime = 0.14 s  ClockTime = 0 s

Time = 20

smoothSolver:  Solving for Ux, Initial residual = 0.3344414297076926, Final residual = 6.69086392306879e-06, No Iterations 4
smoothSolver:  Solving for Uy, Initial residual = 0.1776271939483674, Final residual = 9.426832838565229e-07, No Iterations 4
smoothSolver:  Solving for Uz, Initial residual = 0.2365010156329645, Final residual = 1.9995081326498e-06, No Iterations 4
GAMG:  Solving for p, Initial residual = 0.1835102868080676, Final residual = 7.171422350143772e-05, No Iterations 4
GAMG:  Solving for p, Initial residual = 4.82666449754623e-05, Final residual = 4.122114900729004e-08, No Iterations 6
GAMG:  Solving for p, Initial residual = 4.121661502402224e-08, Final residual = 3.951283687952047e-09, No Iterations 2
GAMG:  Solving for p, Initial residual = 3.951283409619395e-09, Final residual = 3.951283409619395e-09, No Iterations 0
time step continuity errors : sum local = 2.128701226847296e-11, global = 3.775267936513198e-12, cumulative = -5.055413959746117e-10
smoothSolver:  Solving for omega, Initial residual = 0.0006543399143847386, Final residual = 3.198873966548325e-09, No Iterations 4
smoothSolver:  Solving for k, Initial residual = 0.09211621733104668, Final residual = 2.078321802658296e-06, No Iterations 4
ExecutionTime = 0.14 s  ClockTime = 0 s

Time = 21

smoothSolver:  Solving for Ux, Initial residual = 0.4808293656986878, Final residual = 1.075367049816587e-05, No Iterations 4
smoothSolver:  Solving for Uy, Initial residual = 0.2085266572830328, Final residual = 1.079534780823786e-06, No Iterations 4
smoothSolver:  Solving for Uz, Initial residual = 0.1849322365891683, Final residual = 1.493901031621677e-06, No Iterations 4
GAMG:  Solving for p, Initial residual = 0.2277492643984119, Final residual = 7.405313961908347e-05, No Iterations 4
GAMG:  Solving for p, Initial residual = 0.0002892216715335189, Final residual = 2.515142159130158e-07, No Iterations 6
GAMG:  Solving for p, Initial residual = 2.516882001283904e-07, Final residual = 7.476561488494861e-09, No Iterations 3
GAMG:  Solving for p, Initial residual = 7.476564785625816e-09, Final residual = 7.476564785625816e-09, No Iterations 0
time step continuity errors : sum local = 7.656270096458852e-12, global = -1.356412336383306e-12, cumulative = -5.06897808310995e-10
smoothSolver:  Solving for omega, Initial residual = 0.0005132856710609058, Final residual = 2.765226536309656e-09, No Iterations 4
smoothSolver:  Solving for k, Initial residual = 0.09655354436778882, Final residual = 2.406475490372426e-06, No Iterations 4
ExecutionTime = 0.15 s  ClockTime = 0 s

Time = 22

smoothSolver:  Solving for Ux, Initial residual = 0.284382472534128, Final residual = 7.140368897295767e-06, No Iterations 4
smoothSolver:  Solving for Uy, Initial residual = 0.2176151912650732, Final residual = 1.028803320001034e-06, No Iterations 4
smoothSolver:  Solving for Uz, Initial residual = 0.1302702224178625, Final residual = 8.931696394527947e-07, No Iterations 4
GAMG:  Solving for p, Initial residual = 0.3232619668985275, Final residual = 0.0001380825846130645, No Iterations 4
GAMG:  Solving for p, Initial residual = 0.0001799609668974911, Final residual = 1.556448030335197e-07, No Iterations 6
GAMG:  Solving for p, Initial residual = 1.555760868092705e-07, Final residual = 4.624291852742545e-09, No Iterations 3
GAMG:  Solving for p, Initial residual = 4.624290581896727e-09, Final residual = 4.624290581896727e-09, No Iterations 0
time step continuity errors : sum local = 1.191114163133018e-11, global = -2.107848212071026e-12, cumulative = -5.090056565230661e-10
smoothSolver:  Solving for omega, Initial residual = 0.000412076360987381, Final residual = 2.422191257709355e-09, No Iterations 4
smoothSolver:  Solving for k, Initial residual = 0.1029287267340627, Final residual = 2.763846165219241e-06, No Iterations 4
ExecutionTime = 0.15 s  ClockTime = 0 s

Time = 23

smoothSolver:  Solving for Ux, Initial residual = 0.1139219731160727, Final residual = 2.889322576389477e-06, No Iterations 4
smoothSolver:  Solving for Uy, Initial residual = 0.2163332980656617, Final residual = 9.516971491877528e-07, No Iterations 4
smoothSolver:  Solving for Uz, Initial residual = 0.1078218767500421, Final residual = 4.668108114185321e-07, No Iterations 4
GAMG:  Solving for p, Initial residual = 0.4635752766805244, Final residual = 0.0001941047687223575, No Iterations 4
GAMG:  Solving for p, Initial residual = 0.0001087914762328494, Final residual = 9.342969330912438e-08, No Iterations 6
GAMG:  Solving for p, Initial residual = 9.340184512971867e-08, Final residual = 8.958829415600819e-09, No Iterations 2
GAMG:  Solving for p, Initial residual = 8.95882797050271e-09, Final residual = 8.95882797050271e-09, No Iterations 0
time step continuity errors : sum local = 3.151983586141485e-11, global = -5.580273983810231e-12, cumulative = -5.145859305068764e-10
smoothSolver:  Solving for omega, Initial residual = 0.0003264057913421046, Final residual = 1.828838660595955e-09, No Iterations 4
smoothSolver:  Solving for k, Initial residual = 0.1122158048349905, Final residual = 2.943564997230409e-06, No Iterations 4
ExecutionTime = 0.15 s  ClockTime = 0 s

Time = 24

smoothSolver:  Solving for Ux, Initial residual = 0.0857821733518019, Final residual = 5.048614410286715e-07, No Iterations 4
smoothSolver:  Solving for Uy, Initial residual = 0.2033978831411203, Final residual = 1.141591025810029e-06, No Iterations 4
smoothSolver:  Solving for Uz, Initial residual = 0.09885266861492258, Final residual = 4.946618889667303e-07, No Iterations 4
GAMG:  Solving for p, Initial residual = 0.8328106230033179, Final residual = 0.000279767866191516, No Iterations 4
GAMG:  Solving for p, Initial residual = 6.439249296423651e-05, Final residual = 5.445391347924154e-08, No Iterations 6
GAMG:  Solving for p, Initial residual = 5.444341772179999e-08, Final residual = 5.220584531467988e-09, No Iterations 2
GAMG:  Solving for p, Initial residual = 5.220584040883244e-09, Final residual = 5.220584040883244e-09, No Iterations 0
time step continuity errors : sum local = 1.523081393446664e-11, global = -2.697305073069617e-12, cumulative = -5.17283235579946e-10
smoothSolver:  Solving for omega, Initial residual = 0.0002584395583256441, Final residual = 1.37302962745276e-09, No Iterations 4
smoothSolver:  Solving for k, Initial residual = 0.1211478869597526, Final residual = 3.089580322208455e-06, No Iterations 4
ExecutionTime = 0.15 s  ClockTime = 0 s

Time = 25

smoothSolver:  Solving for Ux, Initial residual = 0.1885820849396888, Final residual = 2.731611981198273e-06, No Iterations 4
smoothSolver:  Solving for Uy, Initial residual = 0.1733470500349396, Final residual = 1.107524277713471e-06, No Iterations 4
smoothSolver:  Solving for Uz, Initial residual = 0.08736852070266861, Final residual = 8.960530075146217e-07, No Iterations 4
GAMG:  Solving for p, Initial residual = 0.2034375290905147, Final residual = 0.0001587656550318487, No Iterations 3
GAMG:  Solving for p, Initial residual = 9.843761252765534e-05, Final residual = 3.623952233139271e-08, No Iterations 4
GAMG:  Solving for p, Initial residual = 3.623136180756915e-08, Final residual = 6.453800406207398e-09, No Iterations 1
GAMG:  Solving for p, Initial residual = 6.45379999111854e-09, Final residual = 6.45379999111854e-09, No Iterations 0
time step continuity errors : sum local = 1.048404316048359e-11, global = -2.398754476473905e-12, cumulative = -5.196819900564199e-10
smoothSolver:  Solving for omega, Initial residual = 0.000198540457840614, Final residual = 1.02876411281992e-09, No Iterations 4
smoothSolver:  Solving for k, Initial residual = 0.1204574858633588, Final residual = 2.997570293850504e-06, No Iterations 4
ExecutionTime = 0.16 s  ClockTime = 0 s

Time = 26

smoothSolver:  Solving for Ux, Initial residual = 0.257041492990544, Final residual = 4.119830362061736e-06, No Iterations 4
smoothSolver:  Solving for Uy, Initial residual = 0.1403965751828175, Final residual = 8.426611074830389e-07, No Iterations 4
smoothSolver:  Solving for Uz, Initial residual = 0.08514293625287861, Final residual = 1.180059674483155e-06, No Iterations 4
GAMG:  Solving for p, Initial residual = 0.1578079522000285, Final residual = 0.0001039287560649283, No Iterations 4
GAMG:  Solving for p, Initial residual = 0.0002858657640442509, Final residual = 2.491653689017594e-07, No Iterations 6
GAMG:  Solving for p, Initial residual = 2.493123825728007e-07, Final residual = 7.402455063377153e-09, No Iterations 3
GAMG:  Solving for p, Initial residual = 7.40245829204959e-09, Final residual = 7.40245829204959e-09, No Iterations 0
time step continuity errors : sum local = 3.097469967253477e-12, global = 5.481595806098117e-13, cumulative = -5.191338304758101e-10
smoothSolver:  Solving for omega, Initial residual = 0.0001470397573134496, Final residual = 7.704293014799388e-10, No Iterations 4
smoothSolver:  Solving for k, Initial residual = 0.1104203969079753, Final residual = 2.701629339484837e-06, No Iterations 4
ExecutionTime = 0.16 s  ClockTime = 0 s

Time = 27

smoothSolver:  Solving for Ux, Initial residual = 0.2136852981074857, Final residual = 3.281455350884896e-06, No Iterations 4
smoothSolver:  Solving for Uy, Initial residual = 0.1064833643391379, Final residual = 4.748017568605788e-07, No Iterations 4
smoothSolver:  Solving for Uz, Initial residual = 0.09463580975325346, Final residual = 1.27856288984311e-06, No Iterations 4
GAMG:  Solving for p, Initial residual = 0.2639890401197246, Final residual = 0.0001420019733746022, No Iterations 4
GAMG:  Solving for p, Initial residual = 0.0002107030873664632, Final residual = 1.826925518059854e-07, No Iterations 6
GAMG:  Solving for p, Initial residual = 1.826067308766332e-07, Final residual = 5.421089231450154e-09, No Iterations 3
GAMG:  Solving for p, Initial residual = 5.421087586082299e-09, Final residual = 5.421087586082299e-09, No Iterations 0
time step continuity errors : sum local = 3.665162482951645e-12, global = 6.487786463173451e-13, cumulative = -5.184850518294927e-10
smoothSolver:  Solving for omega, Initial residual = 0.0001057319264358016, Final residual = 5.77362438015641e-10, No Iterations 4
smoothSolver:  Solving for k, Initial residual = 0.09805061872747674, Final residual = 2.382760434891117e-06, No Iterations 4
ExecutionTime = 0.16 s  ClockTime = 0 s

Time = 28

smoothSolver:  Solving for Ux, Initial residual = 0.0986778958816177, Final residual = 9.219667488341714e-07, No Iterations 4
smoothSolver:  Solving for Uy, Initial residual = 0.07605645602279856, Final residual = 2.396948928555775e-07, No Iterations 4
smoothSolver:  Solving for Uz, Initial residual = 0.09275591230518847, Final residual = 1.173649615291764e-06, No Iterations 4
GAMG:  Solving for p, Initial residual = 0.3696429709989238, Final residual = 0.0001576191873218771, No Iterations 4
GAMG:  Solving for p, Initial residual = 0.0001175948692287005, Final residual = 1.013384774284956e-07, No Iterations 6
GAMG:  Solving for p, Initial residual = 1.013083900529756e-07, Final residual = 9.712347966925681e-09, No Iterations 2
GAMG:  Solving for p, Initial residual = 9.71234636513028e-09, Final residual = 9.71234636513028e-09, No Iterations 0
time step continuity errors : sum local = 8.718259171388609e-12, global = 1.54395002360314e-12, cumulative = -5.169411018058896e-10
smoothSolver:  Solving for omega, Initial residual = 7.426525805324514e-05, Final residual = 4.324181104176957e-10, No Iterations 4
smoothSolver:  Solving for k, Initial residual = 0.08507373133662291, Final residual = 2.069394824810924e-06, No Iterations 4
ExecutionTime = 0.16 s  ClockTime = 0 s

Time = 29

smoothSolver:  Solving for Ux, Initial residual = 0.07212411250494609, Final residual = 1.046245226474411e-06, No Iterations 4
smoothSolver:  Solving for Uy, Initial residual = 0.07880721651759438, Final residual = 4.16317484931306e-07, No Iterations 4
smoothSolver:  Solving for Uz, Initial residual = 0.08026064972848139, Final residual = 9.078014664858563e-07, No Iterations 4
GAMG:  Solving for p, Initial residual = 0.5544077046331262, Final residual = 0.0001510622565841623, No Iterations 4
GAMG:  Solving for p, Initial residual = 6.623552352920093e-05, Final residual = 5.599947168716824e-08, No Iterations 6
GAMG:  Solving for p, Initial residual = 5.598908324221052e-08, Final residual = 5.367330378045406e-09, No Iterations 2
GAMG:  Solving for p, Initial residual = 5.367329887299926e-09, Final residual = 5.367329887299926e-09, No Iterations 0
time step continuity errors : sum local = 3.818271361171065e-12, global = 6.765660708156675e-13, cumulative = -5.162645357350739e-10
smoothSolver:  Solving for omega, Initial residual = 5.626396326529252e-05, Final residual = 3.226841659222571e-10, No Iterations 4
smoothSolver:  Solving for k, Initial residual = 0.07314999394004942, Final residual = 1.784272215896877e-06, No Iterations 4
ExecutionTime = 0.16 s  ClockTime = 0 s

Time = 30

smoothSolver:  Solving for Ux, Initial residual = 0.1106291829713875, Final residual = 2.016399801851588e-06, No Iterations 4
smoothSolver:  Solving for Uy, Initial residual = 0.09902706076679647, Final residual = 7.134370172596315e-07, No Iterations 4
smoothSolver:  Solving for Uz, Initial residual = 0.06013592429751551, Final residual = 6.029919149954303e-07, No Iterations 4
GAMG:  Solving for p, Initial residual = 0.5270518449197283, Final residual = 0.0002803891431651218, No Iterations 3
GAMG:  Solving for p, Initial residual = 0.0001539259831366676, Final residual = 4.964660542793742e-08, No Iterations 5
GAMG:  Solving for p, Initial residual = 4.962929375094729e-08, Final residual = 4.756752482358251e-09, No Iterations 2
GAMG:  Solving for p, Initial residual = 4.756752664786881e-09, Final residual = 4.756752664786881e-09, No Iterations 0
time step continuity errors : sum local = 1.731791097177753e-12, global = -2.744174725454941e-13, cumulative = -5.165389532076194e-10
smoothSolver:  Solving for omega, Initial residual = 4.211620706746828e-05, Final residual = 2.3830215650446e-10, No Iterations 4
smoothSolver:  Solving for k, Initial residual = 0.06315169581932205, Final residual = 1.537419381016209e-06, No Iterations 4
ExecutionTime = 0.17 s  ClockTime = 0 s

Time = 31

smoothSolver:  Solving for Ux, Initial residual = 0.11092341985992, Final residual = 2.06053308284237e-06, No Iterations 4
smoothSolver:  Solving for Uy, Initial residual = 0.1178655000459225, Final residual = 9.607335611344132e-07, No Iterations 4
smoothSolver:  Solving for Uz, Initial residual = 0.04535579296652822, Final residual = 3.725644151118617e-07, No Iterations 4
GAMG:  Solving for p, Initial residual = 0.2695376013864361, Final residual = 0.0001541300533992449, No Iterations 4
GAMG:  Solving for p, Initial residual = 0.0002557267655509904, Final residual = 2.218922160200298e-07, No Iterations 6
GAMG:  Solving for p, Initial residual = 2.217847017142059e-07, Final residual = 6.58499352246761e-09, No Iterations 3
GAMG:  Solving for p, Initial residual = 6.584991085238889e-09, Final residual = 6.584991085238889e-09, No Iterations 0
time step continuity errors : sum local = 9.879452966114057e-13, global = -1.748853982414563e-13, cumulative = -5.167138386058608e-10
smoothSolver:  Solving for omega, Initial residual = 3.09263830532831e-05, Final residual = 1.746396983281393e-10, No Iterations 4
smoothSolver:  Solving for k, Initial residual = 0.05487656005990318, Final residual = 1.325302110420282e-06, No Iterations 4
ExecutionTime = 0.17 s  ClockTime = 0 s

Time = 32

smoothSolver:  Solving for Ux, Initial residual = 0.07940054100895555, Final residual = 1.473099380026181e-06, No Iterations 4
smoothSolver:  Solving for Uy, Initial residual = 0.1374209347893642, Final residual = 1.124786975225249e-06, No Iterations 4
smoothSolver:  Solving for Uz, Initial residual = 0.03404638730407145, Final residual = 2.565463035873827e-07, No Iterations 4
GAMG:  Solving for p, Initial residual = 0.3540875837828415, Final residual = 0.00021000208200766, No Iterations 4
GAMG:  Solving for p, Initial residual = 0.0001369403092186006, Final residual = 1.19041172171334e-07, No Iterations 6
GAMG:  Solving for p, Initial residual = 1.190064011398259e-07, Final residual = 3.533364538030185e-09, No Iterations 3
GAMG:  Solving for p, Initial residual = 3.533363826174964e-09, Final residual = 3.533363826174964e-09, No Iterations 0
time step continuity errors : sum local = 1.079595998294664e-12, global = -1.911434637540816e-13, cumulative = -5.169049820696149e-10
smoothSolver:  Solving for omega, Initial residual = 2.235889155225614e-05, Final residual = 1.278229093367153e-10, No Iterations 4
smoothSolver:  Solving for k, Initial residual = 0.04777284514195412, Final residual = 1.142282298934823e-06, No Iterations 4
ExecutionTime = 0.17 s  ClockTime = 0 s

Time = 33

smoothSolver:  Solving for Ux, Initial residual = 0.04413416960566108, Final residual = 8.121368239329331e-07, No Iterations 4
smoothSolver:  Solving for Uy, Initial residual = 0.1472009456443166, Final residual = 1.188569813524399e-06, No Iterations 4
smoothSolver:  Solving for Uz, Initial residual = 0.02587553853296541, Final residual = 2.271662568239176e-07, No Iterations 4
GAMG:  Solving for p, Initial residual = 0.5178245620404394, Final residual = 0.0002620048692293442, No Iterations 4
GAMG:  Solving for p, Initial residual = 9.013339623788275e-05, Final residual = 7.817156368239285e-08, No Iterations 6
GAMG:  Solving for p, Initial residual = 7.815582011756799e-08, Final residual = 7.49372829005967e-09, No Iterations 2
GAMG:  Solving for p, Initial residual = 7.493727367805138e-09, Final residual = 7.493727367805138e-09, No Iterations 0
time step continuity errors : sum local = 2.757794637976076e-12, global = -4.884137260528128e-13, cumulative = -5.173933957956677e-10
smoothSolver:  Solving for omega, Initial residual = 1.880975072363666e-05, Final residual = 9.458558138016137e-11, No Iterations 4
smoothSolver:  Solving for k, Initial residual = 0.04141109533315101, Final residual = 9.826565357685622e-07, No Iterations 4
ExecutionTime = 0.17 s  ClockTime = 0 s

Time = 34

smoothSolver:  Solving for Ux, Initial residual = 0.02796419308382079, Final residual = 2.961151559144761e-07, No Iterations 4
smoothSolver:  Solving for Uy, Initial residual = 0.1435300289975036, Final residual = 1.119876654288749e-06, No Iterations 4
smoothSolver:  Solving for Uz, Initial residual = 0.02204936934950917, Final residual = 2.332571613633187e-07, No Iterations 4
GAMG:  Solving for p, Initial residual = 0.2883308249898569, Final residual = 0.0001288999211822914, No Iterations 4
GAMG:  Solving for p, Initial residual = 5.819733884612703e-05, Final residual = 5.034453922418965e-08, No Iterations 6
GAMG:  Solving for p, Initial residual = 5.033778355766596e-08, Final residual = 4.826491903338349e-09, No Iterations 2
GAMG:  Solving for p, Initial residual = 4.826491520449644e-09, Final residual = 4.826491520449644e-09, No Iterations 0
time step continuity errors : sum local = 1.628183913732222e-12, global = -2.884062858393203e-13, cumulative = -5.176818020815069e-10
smoothSolver:  Solving for omega, Initial residual = 1.639077229001583e-05, Final residual = 7.164183946932656e-11, No Iterations 4
smoothSolver:  Solving for k, Initial residual = 0.03563806459792051, Final residual = 8.408395874765998e-07, No Iterations 4
ExecutionTime = 0.18 s  ClockTime = 0 s

Time = 35

smoothSolver:  Solving for Ux, Initial residual = 0.02973042102339572, Final residual = 2.230197620197804e-07, No Iterations 4
smoothSolver:  Solving for Uy, Initial residual = 0.1284794647970053, Final residual = 9.650800895067387e-07, No Iterations 4
smoothSolver:  Solving for Uz, Initial residual = 0.02077004659998229, Final residual = 2.310239202283291e-07, No Iterations 4
GAMG:  Solving for p, Initial residual = 0.1385024696507105, Final residual = 4.133454931770545e-05, No Iterations 4
GAMG:  Solving for p, Initial residual = 2.989197830544998e-05, Final residual = 2.589111845937664e-08, No Iterations 6
GAMG:  Solving for p, Initial residual = 2.588936877799209e-08, Final residual = 8.016414668388223e-09, No Iterations 1
GAMG:  Solving for p, Initial residual = 8.016414426936288e-09, Final residual = 8.016414426936288e-09, No Iterations 0
time step continuity errors : sum local = 2.145676699434114e-12, global = -3.803786365187777e-13, cumulative = -5.180621807180257e-10
smoothSolver:  Solving for omega, Initial residual = 1.444799218156598e-05, Final residual = 5.552016710257497e-11, No Iterations 4
smoothSolver:  Solving for k, Initial residual = 0.03055242528012832, Final residual = 7.176603671352569e-07, No Iterations 4
ExecutionTime = 0.18 s  ClockTime = 0 s

Time = 36

smoothSolver:  Solving for Ux, Initial residual = 0.02711753821921832, Final residual = 2.427330025950491e-07, No Iterations 4
smoothSolver:  Solving for Uy, Initial residual = 0.1101922076937357, Final residual = 8.167730076724767e-07, No Iterations 4
smoothSolver:  Solving for Uz, Initial residual = 0.02041262935421173, Final residual = 2.058671977062141e-07, No Iterations 4
GAMG:  Solving for p, Initial residual = 0.1067367478899198, Final residual = 3.014457901014724e-05, No Iterations 3
GAMG:  Solving for p, Initial residual = 2.998205187441408e-05, Final residual = 1.838578614167977e-08, No Iterations 6
GAMG:  Solving for p, Initial residual = 1.838403491681911e-08, Final residual = 5.691394275379318e-09, No Iterations 1
GAMG:  Solving for p, Initial residual = 5.691394156111873e-09, Final residual = 5.691394156111873e-09, No Iterations 0
time step continuity errors : sum local = 1.217756457901946e-12, global = -2.157048897804823e-13, cumulative = -5.182778856078062e-10
smoothSolver:  Solving for omega, Initial residual = 1.249145386326444e-05, Final residual = 4.415466329438851e-11, No Iterations 4
smoothSolver:  Solving for k, Initial residual = 0.0259251567172265, Final residual = 6.067617777022458e-07, No Iterations 4
ExecutionTime = 0.18 s  ClockTime = 0 s

Time = 37

smoothSolver:  Solving for Ux, Initial residual = 0.01967985203478987, Final residual = 2.182854819738803e-07, No Iterations 4
smoothSolver:  Solving for Uy, Initial residual = 0.09812697990367129, Final residual = 7.216910684319203e-07, No Iterations 4
smoothSolver:  Solving for Uz, Initial residual = 0.02113408606615608, Final residual = 1.628385984864151e-07, No Iterations 4
GAMG:  Solving for p, Initial residual = 0.1234452420338524, Final residual = 5.34176479388464e-05, No Iterations 3
GAMG:  Solving for p, Initial residual = 6.129105528924757e-05, Final residual = 4.043724167301894e-08, No Iterations 6
GAMG:  Solving for p, Initial residual = 4.044216139322332e-08, Final residual = 3.876664672138149e-09, No Iterations 2
GAMG:  Solving for p, Initial residual = 3.87666490647174e-09, Final residual = 3.87666490647174e-09, No Iterations 0
time step continuity errors : sum local = 7.336651762640471e-13, global = 1.302490705695989e-13, cumulative = -5.181476365372366e-10
smoothSolver:  Solving for omega, Initial residual = 1.05790566999623e-05, Final residual = 3.591595942280448e-11, No Iterations 4
smoothSolver:  Solving for k, Initial residual = 0.0218177088938385, Final residual = 5.090644132445276e-07, No Iterations 4
ExecutionTime = 0.18 s  ClockTime = 0 s

Time = 38

smoothSolver:  Solving for Ux, Initial residual = 0.01265550132090691, Final residual = 2.292674913925738e-07, No Iterations 4
smoothSolver:  Solving for Uy, Initial residual = 0.09820079832769464, Final residual = 6.984172155415264e-07, No Iterations 4
smoothSolver:  Solving for Uz, Initial residual = 0.01995226333132399, Final residual = 1.23539792036461e-07, No Iterations 4
GAMG:  Solving for p, Initial residual = 0.1153867760108366, Final residual = 6.949409023135885e-05, No Iterations 3
GAMG:  Solving for p, Initial residual = 8.253410723784181e-05, Final residual = 5.862802605952632e-08, No Iterations 6
GAMG:  Solving for p, Initial residual = 5.863932472824389e-08, Final residual = 5.621237032644789e-09, No Iterations 2
GAMG:  Solving for p, Initial residual = 5.621237528099601e-09, Final residual = 5.621237528099601e-09, No Iterations 0
time step continuity errors : sum local = 1.008893601491749e-12, global = 1.790557579856753e-13, cumulative = -5.17968580779251e-10
smoothSolver:  Solving for omega, Initial residual = 8.722404726727767e-06, Final residual = 2.956198195307388e-11, No Iterations 4
smoothSolver:  Solving for k, Initial residual = 0.01837544221846583, Final residual = 4.276424634812974e-07, No Iterations 4
ExecutionTime = 0.19 s  ClockTime = 0 s

Time = 39

smoothSolver:  Solving for Ux, Initial residual = 0.01068460236149226, Final residual = 2.247882573096029e-07, No Iterations 4
smoothSolver:  Solving for Uy, Initial residual = 0.1051784196145189, Final residual = 7.462143627667012e-07, No Iterations 4
smoothSolver:  Solving for Uz, Initial residual = 0.01756965169104243, Final residual = 1.021396088133629e-07, No Iterations 4
GAMG:  Solving for p, Initial residual = 0.07744268832705835, Final residual = 7.711391405494872e-05, No Iterations 3
GAMG:  Solving for p, Initial residual = 9.041184295220306e-05, Final residual = 7.29772914487867e-08, No Iterations 6
GAMG:  Solving for p, Initial residual = 7.299262443924804e-08, Final residual = 6.998081580188097e-09, No Iterations 2
GAMG:  Solving for p, Initial residual = 6.998082351567963e-09, Final residual = 6.998082351567963e-09, No Iterations 0
time step continuity errors : sum local = 1.211452858167623e-12, global = 2.148301739071479e-13, cumulative = -5.177537506053439e-10
smoothSolver:  Solving for omega, Initial residual = 6.942996952070878e-06, Final residual = 8.530046035736296e-09, No Iterations 2
smoothSolver:  Solving for k, Initial residual = 0.01552810001854591, Final residual = 3.606200284333522e-07, No Iterations 4
ExecutionTime = 0.19 s  ClockTime = 0 s

Time = 40

smoothSolver:  Solving for Ux, Initial residual = 0.009824617464907209, Final residual = 2.040819170441439e-07, No Iterations 4
smoothSolver:  Solving for Uy, Initial residual = 0.1156312402301754, Final residual = 8.469428280702644e-07, No Iterations 4
smoothSolver:  Solving for Uz, Initial residual = 0.01379127802248454, Final residual = 8.040272776520321e-08, No Iterations 4
GAMG:  Solving for p, Initial residual = 0.03853459694589163, Final residual = 2.797103520321975e-05, No Iterations 4
GAMG:  Solving for p, Initial residual = 3.232270991976883e-05, Final residual = 2.826531041224268e-08, No Iterations 6
GAMG:  Solving for p, Initial residual = 2.826710755270069e-08, Final residual = 8.753034201785625e-09, No Iterations 1
GAMG:  Solving for p, Initial residual = 8.753034483681262e-09, Final residual = 8.753034483681262e-09, No Iterations 0
time step continuity errors : sum local = 1.441642231064097e-12, global = 2.554290367257459e-13, cumulative = -5.174983215686181e-10
smoothSolver:  Solving for omega, Initial residual = 5.286791843341149e-06, Final residual = 6.879104618430379e-09, No Iterations 2
smoothSolver:  Solving for k, Initial residual = 0.0131648933429127, Final residual = 3.052295377411481e-07, No Iterations 4
ExecutionTime = 0.19 s  ClockTime = 1 s

Time = 41

smoothSolver:  Solving for Ux, Initial residual = 0.009661082469881789, Final residual = 1.613370135276082e-07, No Iterations 4
smoothSolver:  Solving for Uy, Initial residual = 0.1279961475015521, Final residual = 9.760938070063144e-07, No Iterations 4
smoothSolver:  Solving for Uz, Initial residual = 0.009950671914086752, Final residual = 6.224373326175725e-08, No Iterations 4
GAMG:  Solving for p, Initial residual = 0.03956280835649563, Final residual = 3.622470589527662e-05, No Iterations 4
GAMG:  Solving for p, Initial residual = 4.108237921922201e-05, Final residual = 3.598699590698894e-08, No Iterations 6
GAMG:  Solving for p, Initial residual = 3.598974616136827e-08, Final residual = 3.451089339115121e-09, No Iterations 2
GAMG:  Solving for p, Initial residual = 3.451089524204228e-09, Final residual = 3.451089524204228e-09, No Iterations 0
time step continuity errors : sum local = 5.480132199056841e-13, global = 9.704351492203828e-14, cumulative = -5.174012780536961e-10
smoothSolver:  Solving for omega, Initial residual = 4.126479208618663e-06, Final residual = 5.488050152885728e-09, No Iterations 2
smoothSolver:  Solving for k, Initial residual = 0.01119084416006584, Final residual = 2.591089442772892e-07, No Iterations 4
ExecutionTime = 0.19 s  ClockTime = 1 s

Time = 42

smoothSolver:  Solving for Ux, Initial residual = 0.007358344444439551, Final residual = 9.816552918252802e-08, No Iterations 4
smoothSolver:  Solving for Uy, Initial residual = 0.1402698667720056, Final residual = 1.104480474888057e-06, No Iterations 4
smoothSolver:  Solving for Uz, Initial residual = 0.008056989057414355, Final residual = 3.920317848248169e-08, No Iterations 4
GAMG:  Solving for p, Initial residual = 0.05774922646237313, Final residual = 3.983645886052603e-05, No Iterations 4
GAMG:  Solving for p, Initial residual = 4.436126337805016e-05, Final residual = 3.840889067784951e-08, No Iterations 6
GAMG:  Solving for p, Initial residual = 3.841219672254138e-08, Final residual = 3.683298933602441e-09, No Iterations 2
GAMG:  Solving for p, Initial residual = 3.68329914439007e-09, Final residual = 3.68329914439007e-09, No Iterations 0
time step continuity errors : sum local = 5.669917767684912e-13, global = 1.003988934834439e-13, cumulative = -5.173008791602127e-10
smoothSolver:  Solving for omega, Initial residual = 3.309902664374826e-06, Final residual = 4.298023682399778e-09, No Iterations 2
smoothSolver:  Solving for k, Initial residual = 0.009534655754442078, Final residual = 2.20491229175275e-07, No Iterations 4
ExecutionTime = 0.19 s  ClockTime = 1 s

Time = 43

smoothSolver:  Solving for Ux, Initial residual = 0.004286286801388364, Final residual = 3.070178825560173e-08, No Iterations 4
smoothSolver:  Solving for Uy, Initial residual = 0.1484249580510053, Final residual = 1.201946461427691e-06, No Iterations 4
smoothSolver:  Solving for Uz, Initial residual = 0.006089569076842508, Final residual = 4.582299103984033e-06, No Iterations 2
GAMG:  Solving for p, Initial residual = 0.06243702991011291, Final residual = 3.440715291473693e-05, No Iterations 4
GAMG:  Solving for p, Initial residual = 3.715818669970479e-05, Final residual = 3.206071356171796e-08, No Iterations 6
GAMG:  Solving for p, Initial residual = 3.206300805410256e-08, Final residual = 9.928443847375519e-09, No Iterations 1
GAMG:  Solving for p, Initial residual = 9.928444208320134e-09, Final residual = 9.928444208320134e-09, No Iterations 0
time step continuity errors : sum local = 1.515134176292474e-12, global = 2.682201431627985e-13, cumulative = -5.170326590170499e-10
smoothSolver:  Solving for omega, Initial residual = 2.615100434982598e-06, Final residual = 3.340195514281769e-09, No Iterations 2
smoothSolver:  Solving for k, Initial residual = 0.008140464994436136, Final residual = 1.880168517774427e-07, No Iterations 4
ExecutionTime = 0.21 s  ClockTime = 1 s

Time = 44

smoothSolver:  Solving for Ux, Initial residual = 0.003444403705083514, Final residual = 5.056139777877851e-08, No Iterations 4
smoothSolver:  Solving for Uy, Initial residual = 0.1505729614573819, Final residual = 1.237016799486179e-06, No Iterations 4
smoothSolver:  Solving for Uz, Initial residual = 0.00501631645296051, Final residual = 2.806807713740076e-06, No Iterations 2
GAMG:  Solving for p, Initial residual = 0.05034602351680194, Final residual = 2.059349648813299e-05, No Iterations 4
GAMG:  Solving for p, Initial residual = 2.122151715137158e-05, Final residual = 1.832685105470647e-08, No Iterations 6
GAMG:  Solving for p, Initial residual = 1.832759668469333e-08, Final residual = 5.675231541024897e-09, No Iterations 1
GAMG:  Solving for p, Initial residual = 5.675231658941998e-09, Final residual = 5.675231658941998e-09, No Iterations 0
time step continuity errors : sum local = 8.856213060092902e-13, global = 1.567703855617689e-13, cumulative = -5.168758886314881e-10
smoothSolver:  Solving for omega, Initial residual = 1.976716384456765e-06, Final residual = 2.655183628842027e-09, No Iterations 2
smoothSolver:  Solving for k, Initial residual = 0.006962807261708621, Final residual = 1.606106822908999e-07, No Iterations 4
ExecutionTime = 0.21 s  ClockTime = 1 s

Time = 45

smoothSolver:  Solving for Ux, Initial residual = 0.003895166286968262, Final residual = 8.947550534274663e-08, No Iterations 4
smoothSolver:  Solving for Uy, Initial residual = 0.147547752251441, Final residual = 1.204070561744531e-06, No Iterations 4
smoothSolver:  Solving for Uz, Initial residual = 0.003822646162165646, Final residual = 3.035735724741803e-06, No Iterations 2
GAMG:  Solving for p, Initial residual = 0.0302854482212353, Final residual = 1.223962482304383e-05, No Iterations 3
GAMG:  Solving for p, Initial residual = 1.199593009304766e-05, Final residual = 9.993652266743301e-09, No Iterations 6
GAMG:  Solving for p, Initial residual = 9.993967141662233e-09, Final residual = 9.993967141662233e-09, No Iterations 0
GAMG:  Solving for p, Initial residual = 9.993967141662233e-09, Final residual = 9.993967141662233e-09, No Iterations 0
time step continuity errors : sum local = 1.626017623587212e-12, global = 2.882652690976298e-13, cumulative = -5.165876233623905e-10
smoothSolver:  Solving for omega, Initial residual = 1.420682218958257e-06, Final residual = 2.145304829833259e-09, No Iterations 2
smoothSolver:  Solving for k, Initial residual = 0.005964098243605311, Final residual = 1.37406601898665e-07, No Iterations 4
ExecutionTime = 0.21 s  ClockTime = 1 s

Time = 46

smoothSolver:  Solving for Ux, Initial residual = 0.00392539732663421, Final residual = 9.429913476385755e-08, No Iterations 4
smoothSolver:  Solving for Uy, Initial residual = 0.1409769126448576, Final residual = 1.104532308950112e-06, No Iterations 4
smoothSolver:  Solving for Uz, Initial residual = 0.002988056799342743, Final residual = 1.789909025979083e-08, No Iterations 4
GAMG:  Solving for p, Initial residual = 0.01656647002202245, Final residual = 8.530142078407592e-06, No Iterations 4
GAMG:  Solving for p, Initial residual = 8.043004342703554e-06, Final residual = 6.878050790023185e-09, No Iterations 6
GAMG:  Solving for p, Initial residual = 6.877938670466284e-09, Final residual = 6.877938670466284e-09, No Iterations 0
GAMG:  Solving for p, Initial residual = 6.877938670466284e-09, Final residual = 6.877938670466284e-09, No Iterations 0
time step continuity errors : sum local = 1.17396161046364e-12, global = -2.075704876500321e-13, cumulative = -5.167951938500405e-10
smoothSolver:  Solving for omega, Initial residual = 9.857376150611309e-07, Final residual = 1.736211254284543e-09, No Iterations 2
smoothSolver:  Solving for k, Initial residual = 0.005113497603374335, Final residual = 1.177009292046434e-07, No Iterations 4
ExecutionTime = 0.21 s  ClockTime = 1 s

Time = 47

smoothSolver:  Solving for Ux, Initial residual = 0.003141563117945732, Final residual = 7.026455955184828e-08, No Iterations 4
smoothSolver:  Solving for Uy, Initial residual = 0.1375485928678319, Final residual = 9.571527415250523e-07, No Iterations 4
smoothSolver:  Solving for Uz, Initial residual = 0.00232973622514561, Final residual = 1.418991164280411e-08, No Iterations 4
GAMG:  Solving for p, Initial residual = 0.01524087274288682, Final residual = 1.412290810233923e-05, No Iterations 4
GAMG:  Solving for p, Initial residual = 1.308948419144422e-05, Final residual = 1.131904601466551e-08, No Iterations 6
GAMG:  Solving for p, Initial residual = 1.131878250511133e-08, Final residual = 3.505035840276091e-09, No Iterations 1
GAMG:  Solving for p, Initial residual = 3.505035795223316e-09, Final residual = 3.505035795223316e-09, No Iterations 0
time step continuity errors : sum local = 6.22757092142876e-13, global = -1.101917367289406e-13, cumulative = -5.169053855867694e-10
smoothSolver:  Solving for omega, Initial residual = 8.590392312363067e-07, Final residual = 1.383073037639668e-09, No Iterations 2
smoothSolver:  Solving for k, Initial residual = 0.004386199880789697, Final residual = 1.00920589309712e-07, No Iterations 4
ExecutionTime = 0.22 s  ClockTime = 1 s

Time = 48

smoothSolver:  Solving for Ux, Initial residual = 0.00211350102340304, Final residual = 3.196723001316603e-08, No Iterations 4
smoothSolver:  Solving for Uy, Initial residual = 0.136761427655566, Final residual = 8.253050858355544e-07, No Iterations 4
smoothSolver:  Solving for Uz, Initial residual = 0.002214958632916601, Final residual = 1.006361795386153e-08, No Iterations 4
GAMG:  Solving for p, Initial residual = 0.01762636361483761, Final residual = 1.616064658524924e-05, No Iterations 4
GAMG:  Solving for p, Initial residual = 1.507524697484512e-05, Final residual = 1.300813662216772e-08, No Iterations 6
GAMG:  Solving for p, Initial residual = 1.300778233335889e-08, Final residual = 4.028007728589212e-09, No Iterations 1
GAMG:  Solving for p, Initial residual = 4.028007669055791e-09, Final residual = 4.028007669055791e-09, No Iterations 0
time step continuity errors : sum local = 7.310600399524338e-13, global = -1.293873212955831e-13, cumulative = -5.17034772908065e-10
smoothSolver:  Solving for omega, Initial residual = 7.682712573460893e-07, Final residual = 1.078752317087555e-09, No Iterations 2
smoothSolver:  Solving for k, Initial residual = 0.003762636271846558, Final residual = 8.659859592023644e-08, No Iterations 4
ExecutionTime = 0.22 s  ClockTime = 1 s

Time = 49

smoothSolver:  Solving for Ux, Initial residual = 0.001378396049881187, Final residual = 1.038491346251959e-08, No Iterations 4
smoothSolver:  Solving for Uy, Initial residual = 0.1389691169619401, Final residual = 7.295114751274017e-07, No Iterations 4
smoothSolver:  Solving for Uz, Initial residual = 0.001997721887196234, Final residual = 8.796955212321171e-09, No Iterations 4
GAMG:  Solving for p, Initial residual = 0.01623731468271411, Final residual = 1.312419718303648e-05, No Iterations 4
GAMG:  Solving for p, Initial residual = 1.253517046759622e-05, Final residual = 1.074001957604433e-08, No Iterations 6
GAMG:  Solving for p, Initial residual = 1.073976358148153e-08, Final residual = 3.325621246480621e-09, No Iterations 1
GAMG:  Solving for p, Initial residual = 3.325621205883195e-09, Final residual = 3.325621205883195e-09, No Iterations 0
time step continuity errors : sum local = 6.040745024001025e-13, global = -1.069081896771323e-13, cumulative = -5.171416810977422e-10
smoothSolver:  Solving for omega, Initial residual = 6.645856294449196e-07, Final residual = 8.192774896537532e-10, No Iterations 2
smoothSolver:  Solving for k, Initial residual = 0.003227458329581735, Final residual = 7.435366033955461e-08, No Iterations 4
ExecutionTime = 0.22 s  ClockTime = 1 s

Time = 50

smoothSolver:  Solving for Ux, Initial residual = 0.001780121131435773, Final residual = 3.636313376930624e-08, No Iterations 4
smoothSolver:  Solving for Uy, Initial residual = 0.1457196743521799, Final residual = 6.591202816942291e-07, No Iterations 4
smoothSolver:  Solving for Uz, Initial residual = 0.001700507098956721, Final residual = 1.055368002619612e-08, No Iterations 4
GAMG:  Solving for p, Initial residual = 0.01199100012130325, Final residual = 6.776469652104874e-06, No Iterations 4
GAMG:  Solving for p, Initial residual = 6.6735914089214e-06, Final residual = 5.69317245739045e-09, No Iterations 6
GAMG:  Solving for p, Initial residual = 5.69310058050079e-09, Final residual = 5.69310058050079e-09, No Iterations 0
GAMG:  Solving for p, Initial residual = 5.69310058050079e-09, Final residual = 5.69310058050079e-09, No Iterations 0
time step continuity errors : sum local = 1.01880982452514e-12, global = -1.801314466432353e-13, cumulative = -5.173218125443854e-10
smoothSolver:  Solving for omega, Initial residual = 5.507173456553156e-07, Final residual = 6.095558678615041e-10, No Iterations 2
smoothSolver:  Solving for k, Initial residual = 0.00276871149503009, Final residual = 6.387271190861786e-08, No Iterations 4
ExecutionTime = 0.22 s  ClockTime = 1 s

Time = 51

smoothSolver:  Solving for Ux, Initial residual = 0.00206670730928217, Final residual = 4.690794423145564e-08, No Iterations 4
smoothSolver:  Solving for Uy, Initial residual = 0.1570657145157637, Final residual = 6.388958375274388e-07, No Iterations 4
smoothSolver:  Solving for Uz, Initial residual = 0.001532297976724196, Final residual = 1.267029011711108e-08, No Iterations 4
GAMG:  Solving for p, Initial residual = 0.008709480891922335, Final residual = 2.476123577367388e-06, No Iterations 3
GAMG:  Solving for p, Initial residual = 2.506500174297648e-06, Final residual = 7.955818296575123e-09, No Iterations 4
GAMG:  Solving for p, Initial residual = 7.955853456799726e-09, Final residual = 7.955853456799726e-09, No Iterations 0
GAMG:  Solving for p, Initial residual = 7.955853456799726e-09, Final residual = 7.955853456799726e-09, No Iterations 0
time step continuity errors : sum local = 1.392317364572304e-12, global = 2.795500606623137e-13, cumulative = -5.170422624837231e-10
smoothSolver:  Solving for omega, Initial residual = 4.365973429778257e-07, Final residual = 4.469016581192737e-10, No Iterations 2
smoothSolver:  Solving for k, Initial residual = 0.002376285320064104, Final residual = 5.489598243751629e-08, No Iterations 4
ExecutionTime = 0.22 s  ClockTime = 1 s

Time = 52

smoothSolver:  Solving for Ux, Initial residual = 0.001743426289545208, Final residual = 4.18337140208577e-08, No Iterations 4
smoothSolver:  Solving for Uy, Initial residual = 0.1599309332331743, Final residual = 6.068907316349644e-07, No Iterations 4
smoothSolver:  Solving for Uz, Initial residual = 0.00131900183265518, Final residual = 1.257298279319535e-08, No Iterations 4
GAMG:  Solving for p, Initial residual = 0.007383960885639428, Final residual = 3.98606087001784e-06, No Iterations 4
GAMG:  Solving for p, Initial residual = 4.104021143008453e-06, Final residual = 3.532401038720982e-09, No Iterations 6
GAMG:  Solving for p, Initial residual = 3.532431626898814e-09, Final residual = 3.532431626898814e-09, No Iterations 0
GAMG:  Solving for p, Initial residual = 3.532431626898814e-09, Final residual = 3.532431626898814e-09, No Iterations 0
time step continuity errors : sum local = 6.05446806798235e-13, global = 1.071870005069726e-13, cumulative = -5.169350754832161e-10
smoothSolver:  Solving for omega, Initial residual = 3.47494318261019e-07, Final residual = 3.166131662129358e-10, No Iterations 2
smoothSolver:  Solving for k, Initial residual = 0.002040485007050633, Final residual = 4.720481155157166e-08, No Iterations 4
ExecutionTime = 0.23 s  ClockTime = 1 s

Time = 53

smoothSolver:  Solving for Ux, Initial residual = 0.001068500946128381, Final residual = 2.713442063776581e-08, No Iterations 4
smoothSolver:  Solving for Uy, Initial residual = 0.1484420127330249, Final residual = 5.226417685357169e-07, No Iterations 4
smoothSolver:  Solving for Uz, Initial residual = 0.001060397567206562, Final residual = 1.04190927200526e-08, No Iterations 4
GAMG:  Solving for p, Initial residual = 0.006726499199215511, Final residual = 5.305289292291193e-06, No Iterations 4
GAMG:  Solving for p, Initial residual = 5.482225226883957e-06, Final residual = 4.732994327809376e-09, No Iterations 6
GAMG:  Solving for p, Initial residual = 4.733044035642199e-09, Final residual = 4.733044035642199e-09, No Iterations 0
GAMG:  Solving for p, Initial residual = 4.733044035642199e-09, Final residual = 4.733044035642199e-09, No Iterations 0
time step continuity errors : sum local = 8.007615241243078e-13, global = 1.416517684130594e-13, cumulative = -5.167934237148031e-10
smoothSolver:  Solving for omega, Initial residual = 2.694566386416176e-07, Final residual = 2.1592862026963e-10, No Iterations 2
smoothSolver:  Solving for k, Initial residual = 0.00175342357909613, Final residual = 4.061254842813046e-08, No Iterations 4
ExecutionTime = 0.23 s  ClockTime = 1 s

Time = 54

smoothSolver:  Solving for Ux, Initial residual = 0.0006415665260440401, Final residual = 1.012539303953237e-08, No Iterations 4
smoothSolver:  Solving for Uy, Initial residual = 0.1282430115889746, Final residual = 4.152554340436916e-07, No Iterations 4
smoothSolver:  Solving for Uz, Initial residual = 0.0008141468064921241, Final residual = 7.344138046740513e-09, No Iterations 4
GAMG:  Solving for p, Initial residual = 0.006569627783100767, Final residual = 4.7053320609502e-06, No Iterations 4
GAMG:  Solving for p, Initial residual = 4.825801449675555e-06, Final residual = 4.159687970164529e-09, No Iterations 6
GAMG:  Solving for p, Initial residual = 4.159723257268741e-09, Final residual = 4.159723257268741e-09, No Iterations 0
GAMG:  Solving for p, Initial residual = 4.159723257268741e-09, Final residual = 4.159723257268741e-09, No Iterations 0
time step continuity errors : sum local = 7.016335195121638e-13, global = 1.240385303242354e-13, cumulative = -5.166693851844788e-10
smoothSolver:  Solving for omega, Initial residual = 2.271764604655584e-07, Final residual = 1.525062809338769e-10, No Iterations 2
smoothSolver:  Solving for k, Initial residual = 0.001507957999160651, Final residual = 3.495853863822911e-08, No Iterations 4
ExecutionTime = 0.23 s  ClockTime = 1 s

Time = 55

smoothSolver:  Solving for Ux, Initial residual = 0.0004706452551190775, Final residual = 3.673743491230135e-09, No Iterations 4
smoothSolver:  Solving for Uy, Initial residual = 0.1075184949714578, Final residual = 3.430350721179536e-07, No Iterations 4
smoothSolver:  Solving for Uz, Initial residual = 0.0006221264896491865, Final residual = 4.252302971269695e-09, No Iterations 4
GAMG:  Solving for p, Initial residual = 0.005804820117119115, Final residual = 3.521171303232048e-06, No Iterations 4
GAMG:  Solving for p, Initial residual = 3.563903903726865e-06, Final residual = 9.791962447655006e-09, No Iterations 5
GAMG:  Solving for p, Initial residual = 9.792026667936004e-09, Final residual = 9.792026667936004e-09, No Iterations 0
GAMG:  Solving for p, Initial residual = 9.792026667936004e-09, Final residual = 9.792026667936004e-09, No Iterations 0
time step continuity errors : sum local = 1.65990348157812e-12, global = 2.929316029979845e-13, cumulative = -5.163764535814808e-10
smoothSolver:  Solving for omega, Initial residual = 1.818645854091633e-07, Final residual = 1.071647898837961e-10, No Iterations 2
smoothSolver:  Solving for k, Initial residual = 0.001297715089229324, Final residual = 3.010449109977374e-08, No Iterations 4
ExecutionTime = 0.23 s  ClockTime = 1 s

Time = 56

smoothSolver:  Solving for Ux, Initial residual = 0.0005049232946466315, Final residual = 1.037381476073342e-08, No Iterations 4
smoothSolver:  Solving for Uy, Initial residual = 0.0969397705005009, Final residual = 3.093715841640376e-07, No Iterations 4
smoothSolver:  Solving for Uz, Initial residual = 0.0005042261008730274, Final residual = 1.783371177658321e-09, No Iterations 4
GAMG:  Solving for p, Initial residual = 0.004702117644627074, Final residual = 1.213339805646091e-06, No Iterations 4
GAMG:  Solving for p, Initial residual = 1.212325049276791e-06, Final residual = 3.220030328258704e-09, No Iterations 5
GAMG:  Solving for p, Initial residual = 3.220036850837878e-09, Final residual = 3.220036850837878e-09, No Iterations 0
GAMG:  Solving for p, Initial residual = 3.220036850837878e-09, Final residual = 3.220036850837878e-09, No Iterations 0
time step continuity errors : sum local = 5.506854597901235e-13, global = 9.635696621866602e-14, cumulative = -5.162800966152622e-10
smoothSolver:  Solving for omega, Initial residual = 1.377128006502177e-07, Final residual = 8.462109814353003e-11, No Iterations 2
smoothSolver:  Solving for k, Initial residual = 0.001117185522475115, Final residual = 2.593219585300349e-08, No Iterations 4
ExecutionTime = 0.23 s  ClockTime = 1 s

Time = 57

smoothSolver:  Solving for Ux, Initial residual = 0.0004737781941444944, Final residual = 1.106389820717628e-08, No Iterations 4
smoothSolver:  Solving for Uy, Initial residual = 0.09224500574626232, Final residual = 9.189935738900851e-05, No Iterations 2
smoothSolver:  Solving for Uz, Initial residual = 0.0004285431056589332, Final residual = 1.778733641602764e-09, No Iterations 4
GAMG:  Solving for p, Initial residual = 0.003748894034713199, Final residual = 3.329797803812353e-06, No Iterations 3
GAMG:  Solving for p, Initial residual = 3.299077929755548e-06, Final residual = 6.377076789829479e-09, No Iterations 5
GAMG:  Solving for p, Initial residual = 6.377036414660779e-09, Final residual = 6.377036414660779e-09, No Iterations 0
GAMG:  Solving for p, Initial residual = 6.377036414660779e-09, Final residual = 6.377036414660779e-09, No Iterations 0
time step continuity errors : sum local = 1.099905727545556e-12, global = -2.003013485782136e-13, cumulative = -5.164803979638404e-10
smoothSolver:  Solving for omega, Initial residual = 9.769055106200201e-08, Final residual = 8.765112005737351e-11, No Iterations 2
smoothSolver:  Solving for k, Initial residual = 0.0009617735647689536, Final residual = 2.234161829664751e-08, No Iterations 4
ExecutionTime = 0.23 s  ClockTime = 1 s

Time = 58

smoothSolver:  Solving for Ux, Initial residual = 0.0002867095884138697, Final residual = 7.512178949393736e-09, No Iterations 4
smoothSolver:  Solving for Uy, Initial residual = 0.09169799112122286, Final residual = 2.858364435776745e-07, No Iterations 4
smoothSolver:  Solving for Uz, Initial residual = 0.0003761084684320207, Final residual = 1.916845120003942e-09, No Iterations 4
GAMG:  Solving for p, Initial residual = 0.002636334432385098, Final residual = 1.541352906801667e-06, No Iterations 4
GAMG:  Solving for p, Initial residual = 1.523136762615053e-06, Final residual = 4.234087151005233e-09, No Iterations 5
GAMG:  Solving for p, Initial residual = 4.234072966413685e-09, Final residual = 4.234072966413685e-09, No Iterations 0
GAMG:  Solving for p, Initial residual = 4.234072966413685e-09, Final residual = 4.234072966413685e-09, No Iterations 0
time step continuity errors : sum local = 7.342900021881102e-13, global = -1.305870191056901e-13, cumulative = -5.166109849829461e-10
smoothSolver:  Solving for omega, Initial residual = 7.673414060030798e-08, Final residual = 9.68454817041804e-11, No Iterations 2
smoothSolver:  Solving for k, Initial residual = 0.0008277509594026106, Final residual = 1.924879273664529e-08, No Iterations 4
ExecutionTime = 0.24 s  ClockTime = 1 s

Time = 59

smoothSolver:  Solving for Ux, Initial residual = 0.0002082389848234087, Final residual = 2.481053040767012e-09, No Iterations 4
smoothSolver:  Solving for Uy, Initial residual = 0.09974146900505786, Final residual = 2.994449005246869e-07, No Iterations 4
smoothSolver:  Solving for Uz, Initial residual = 0.000304984019555077, Final residual = 1.691432360334615e-09, No Iterations 4
GAMG:  Solving for p, Initial residual = 0.001666052486035694, Final residual = 1.576610865483824e-06, No Iterations 4
GAMG:  Solving for p, Initial residual = 1.561430218315314e-06, Final residual = 4.374057242740649e-09, No Iterations 5
GAMG:  Solving for p, Initial residual = 4.374043523082491e-09, Final residual = 4.374043523082491e-09, No Iterations 0
GAMG:  Solving for p, Initial residual = 4.374043523082491e-09, Final residual = 4.374043523082491e-09, No Iterations 0
time step continuity errors : sum local = 7.597464209406283e-13, global = -1.3475724859767e-13, cumulative = -5.167457422315438e-10
smoothSolver:  Solving for omega, Initial residual = 7.242421693705405e-08, Final residual = 9.643781284072449e-11, No Iterations 2
smoothSolver:  Solving for k, Initial residual = 0.0007121227848713501, Final residual = 1.658341833106503e-08, No Iterations 4
ExecutionTime = 0.24 s  ClockTime = 1 s

Time = 60

smoothSolver:  Solving for Ux, Initial residual = 0.0002215090536842327, Final residual = 1.748443600658817e-09, No Iterations 4
smoothSolver:  Solving for Uy, Initial residual = 0.1139940754090401, Final residual = 3.168188407904902e-07, No Iterations 4
smoothSolver:  Solving for Uz, Initial residual = 0.0002126234142302665, Final residual = 1.417946651790979e-09, No Iterations 4
GAMG:  Solving for p, Initial residual = 0.0009735785573713918, Final residual = 3.276934831093804e-07, No Iterations 5
GAMG:  Solving for p, Initial residual = 3.261017230550604e-07, Final residual = 9.630197409245056e-09, No Iterations 3
GAMG:  Solving for p, Initial residual = 9.630192200556282e-09, Final residual = 9.630192200556282e-09, No Iterations 0
GAMG:  Solving for p, Initial residual = 9.630192200556282e-09, Final residual = 9.630192200556282e-09, No Iterations 0
time step continuity errors : sum local = 1.669910818922373e-12, global = -2.956825274201061e-13, cumulative = -5.17041424758964e-10
[...]
smoothSolver:  Solving for k, Initial residual = 9.658214686064932e-09, Final residual = 9.658214686064932e-09, No Iterations 0
ExecutionTime = 1.89 s  ClockTime = 2 s

Time = 986

smoothSolver:  Solving for Ux, Initial residual = 7.126486194717583e-14, Final residual = 7.126486194717583e-14, No Iterations 0
smoothSolver:  Solving for Uy, Initial residual = 1.089224578523682e-06, Final residual = 2.340232202061294e-09, No Iterations 2
smoothSolver:  Solving for Uz, Initial residual = 8.279465903701852e-16, Final residual = 8.279465903701852e-16, No Iterations 0
GAMG:  Solving for p, Initial residual = 6.234899855605108e-09, Final residual = 6.234899855605108e-09, No Iterations 0
GAMG:  Solving for p, Initial residual = 6.234899855605108e-09, Final residual = 6.234899855605108e-09, No Iterations 0
GAMG:  Solving for p, Initial residual = 6.234899855605108e-09, Final residual = 6.234899855605108e-09, No Iterations 0
GAMG:  Solving for p, Initial residual = 6.234899855605108e-09, Final residual = 6.234899855605108e-09, No Iterations 0
time step continuity errors : sum local = 1.072787076220484e-12, global = -4.751939154188785e-13, cumulative = -8.943877099972453e-10
smoothSolver:  Solving for omega, Initial residual = 8.5538491480137e-09, Final residual = 8.5538491480137e-09, No Iterations 0
smoothSolver:  Solving for k, Initial residual = 9.658215333105405e-09, Final residual = 9.658215333105405e-09, No Iterations 0
ExecutionTime = 1.9 s  ClockTime = 2 s

Time = 987

smoothSolver:  Solving for Ux, Initial residual = 7.031466378788001e-14, Final residual = 7.031466378788001e-14, No Iterations 0
smoothSolver:  Solving for Uy, Initial residual = 1.091887063847309e-06, Final residual = 2.341798835874482e-09, No Iterations 2
smoothSolver:  Solving for Uz, Initial residual = 1.100777487190631e-15, Final residual = 1.100777487190631e-15, No Iterations 0
GAMG:  Solving for p, Initial residual = 6.234868825704872e-09, Final residual = 6.234868825704872e-09, No Iterations 0
GAMG:  Solving for p, Initial residual = 6.234868825704872e-09, Final residual = 6.234868825704872e-09, No Iterations 0
GAMG:  Solving for p, Initial residual = 6.234868825704872e-09, Final residual = 6.234868825704872e-09, No Iterations 0
GAMG:  Solving for p, Initial residual = 6.234868825704872e-09, Final residual = 6.234868825704872e-09, No Iterations 0
time step continuity errors : sum local = 1.072781740304935e-12, global = -4.751939066359715e-13, cumulative = -8.948629039038812e-10
smoothSolver:  Solving for omega, Initial residual = 8.553849148536409e-09, Final residual = 8.553849148536409e-09, No Iterations 0
smoothSolver:  Solving for k, Initial residual = 9.658214815473024e-09, Final residual = 9.658214815473024e-09, No Iterations 0
ExecutionTime = 1.9 s  ClockTime = 2 s

Time = 988

smoothSolver:  Solving for Ux, Initial residual = 7.221506010647157e-14, Final residual = 7.221506010647157e-14, No Iterations 0
smoothSolver:  Solving for Uy, Initial residual = 1.093696414616934e-06, Final residual = 2.343778550317909e-09, No Iterations 2
smoothSolver:  Solving for Uz, Initial residual = 8.626455171368503e-16, Final residual = 8.626455171368503e-16, No Iterations 0
GAMG:  Solving for p, Initial residual = 6.234889515613257e-09, Final residual = 6.234889515613257e-09, No Iterations 0
GAMG:  Solving for p, Initial residual = 6.234889515613257e-09, Final residual = 6.234889515613257e-09, No Iterations 0
GAMG:  Solving for p, Initial residual = 6.234889515613257e-09, Final residual = 6.234889515613257e-09, No Iterations 0
GAMG:  Solving for p, Initial residual = 6.234889515613257e-09, Final residual = 6.234889515613257e-09, No Iterations 0
time step continuity errors : sum local = 1.072785740892851e-12, global = -4.751934719763621e-13, cumulative = -8.953380973758575e-10
smoothSolver:  Solving for omega, Initial residual = 8.5538491480137e-09, Final residual = 8.5538491480137e-09, No Iterations 0
smoothSolver:  Solving for k, Initial residual = 9.658215333105403e-09, Final residual = 9.658215333105403e-09, No Iterations 0
ExecutionTime = 1.9 s  ClockTime = 2 s

Time = 989

smoothSolver:  Solving for Ux, Initial residual = 7.078976286752788e-14, Final residual = 7.078976286752788e-14, No Iterations 0
smoothSolver:  Solving for Uy, Initial residual = 1.090262938094252e-06, Final residual = 2.341929088122358e-09, No Iterations 2
smoothSolver:  Solving for Uz, Initial residual = 8.326763569138548e-16, Final residual = 8.326763569138548e-16, No Iterations 0
GAMG:  Solving for p, Initial residual = 6.234863725022397e-09, Final residual = 6.234863725022397e-09, No Iterations 0
GAMG:  Solving for p, Initial residual = 6.234863725022397e-09, Final residual = 6.234863725022397e-09, No Iterations 0
GAMG:  Solving for p, Initial residual = 6.234863725022397e-09, Final residual = 6.234863725022397e-09, No Iterations 0
GAMG:  Solving for p, Initial residual = 6.234863725022397e-09, Final residual = 6.234863725022397e-09, No Iterations 0
time step continuity errors : sum local = 1.072781749835429e-12, global = -4.751939142365015e-13, cumulative = -8.958132912900941e-10
smoothSolver:  Solving for omega, Initial residual = 8.553849148536409e-09, Final residual = 8.553849148536409e-09, No Iterations 0
smoothSolver:  Solving for k, Initial residual = 9.658214686064933e-09, Final residual = 9.658214686064933e-09, No Iterations 0
ExecutionTime = 1.9 s  ClockTime = 2 s

Time = 990

smoothSolver:  Solving for Ux, Initial residual = 7.078976286752796e-14, Final residual = 7.078976286752796e-14, No Iterations 0
smoothSolver:  Solving for Uy, Initial residual = 1.091504363649892e-06, Final residual = 2.344175770630016e-09, No Iterations 2
smoothSolver:  Solving for Uz, Initial residual = 1.06923907862752e-15, Final residual = 1.06923907862752e-15, No Iterations 0
GAMG:  Solving for p, Initial residual = 6.234899841899948e-09, Final residual = 6.234899841899948e-09, No Iterations 0
GAMG:  Solving for p, Initial residual = 6.234899841899948e-09, Final residual = 6.234899841899948e-09, No Iterations 0
GAMG:  Solving for p, Initial residual = 6.234899841899948e-09, Final residual = 6.234899841899948e-09, No Iterations 0
GAMG:  Solving for p, Initial residual = 6.234899841899948e-09, Final residual = 6.234899841899948e-09, No Iterations 0
time step continuity errors : sum local = 1.072787074314729e-12, global = -4.751939015059801e-13, cumulative = -8.962884851916e-10
smoothSolver:  Solving for omega, Initial residual = 8.5538491480137e-09, Final residual = 8.5538491480137e-09, No Iterations 0
smoothSolver:  Solving for k, Initial residual = 9.658215462513497e-09, Final residual = 9.658215462513497e-09, No Iterations 0
ExecutionTime = 1.9 s  ClockTime = 2 s

Time = 991

smoothSolver:  Solving for Ux, Initial residual = 7.173996102682362e-14, Final residual = 7.173996102682362e-14, No Iterations 0
smoothSolver:  Solving for Uy, Initial residual = 1.094512988297872e-06, Final residual = 2.344429431133257e-09, No Iterations 2
smoothSolver:  Solving for Uz, Initial residual = 9.090028993838821e-16, Final residual = 9.090028993838821e-16, No Iterations 0
GAMG:  Solving for p, Initial residual = 6.234858556444247e-09, Final residual = 6.234858556444247e-09, No Iterations 0
GAMG:  Solving for p, Initial residual = 6.234858556444247e-09, Final residual = 6.234858556444247e-09, No Iterations 0
GAMG:  Solving for p, Initial residual = 6.234858556444247e-09, Final residual = 6.234858556444247e-09, No Iterations 0
GAMG:  Solving for p, Initial residual = 6.234858556444247e-09, Final residual = 6.234858556444247e-09, No Iterations 0
time step continuity errors : sum local = 1.072779972924508e-12, global = -4.751930285377946e-13, cumulative = -8.967636782201379e-10
smoothSolver:  Solving for omega, Initial residual = 8.553849148536409e-09, Final residual = 8.553849148536409e-09, No Iterations 0
smoothSolver:  Solving for k, Initial residual = 9.658214686064932e-09, Final residual = 9.658214686064932e-09, No Iterations 0
ExecutionTime = 1.91 s  ClockTime = 2 s

Time = 992

smoothSolver:  Solving for Ux, Initial residual = 7.126486194717583e-14, Final residual = 7.126486194717583e-14, No Iterations 0
smoothSolver:  Solving for Uy, Initial residual = 1.089118955804869e-06, Final residual = 2.34226119792319e-09, No Iterations 2
smoothSolver:  Solving for Uz, Initial residual = 8.170383857921488e-16, Final residual = 8.170383857921488e-16, No Iterations 0
GAMG:  Solving for p, Initial residual = 6.234902464941543e-09, Final residual = 6.234902464941543e-09, No Iterations 0
GAMG:  Solving for p, Initial residual = 6.234902464941543e-09, Final residual = 6.234902464941543e-09, No Iterations 0
GAMG:  Solving for p, Initial residual = 6.234902464941543e-09, Final residual = 6.234902464941543e-09, No Iterations 0
GAMG:  Solving for p, Initial residual = 6.234902464941543e-09, Final residual = 6.234902464941543e-09, No Iterations 0
time step continuity errors : sum local = 1.07278752576778e-12, global = -4.75194352755591e-13, cumulative = -8.972388725728934e-10
smoothSolver:  Solving for omega, Initial residual = 8.5538491480137e-09, Final residual = 8.5538491480137e-09, No Iterations 0
smoothSolver:  Solving for k, Initial residual = 9.658215333105405e-09, Final residual = 9.658215333105405e-09, No Iterations 0
ExecutionTime = 1.91 s  ClockTime = 2 s

Time = 993

smoothSolver:  Solving for Ux, Initial residual = 7.031466378788001e-14, Final residual = 7.031466378788001e-14, No Iterations 0
smoothSolver:  Solving for Uy, Initial residual = 1.091523860469314e-06, Final residual = 2.344834076860484e-09, No Iterations 2
smoothSolver:  Solving for Uz, Initial residual = 1.109874491998774e-15, Final residual = 1.109874491998774e-15, No Iterations 0
GAMG:  Solving for p, Initial residual = 6.234866227868168e-09, Final residual = 6.234866227868168e-09, No Iterations 0
GAMG:  Solving for p, Initial residual = 6.234866227868168e-09, Final residual = 6.234866227868168e-09, No Iterations 0
GAMG:  Solving for p, Initial residual = 6.234866227868168e-09, Final residual = 6.234866227868168e-09, No Iterations 0
GAMG:  Solving for p, Initial residual = 6.234866227868168e-09, Final residual = 6.234866227868168e-09, No Iterations 0
time step continuity errors : sum local = 1.072781292732563e-12, global = -4.751934673438728e-13, cumulative = -8.977140660402373e-10
smoothSolver:  Solving for omega, Initial residual = 8.553849148536409e-09, Final residual = 8.553849148536409e-09, No Iterations 0
smoothSolver:  Solving for k, Initial residual = 9.658214815473024e-09, Final residual = 9.658214815473024e-09, No Iterations 0
ExecutionTime = 1.91 s  ClockTime = 2 s

Time = 994

smoothSolver:  Solving for Ux, Initial residual = 7.221506010647157e-14, Final residual = 7.221506010647157e-14, No Iterations 0
smoothSolver:  Solving for Uy, Initial residual = 1.094258510807287e-06, Final residual = 2.34577445146395e-09, No Iterations 2
smoothSolver:  Solving for Uz, Initial residual = 8.616852360770662e-16, Final residual = 8.616852360770662e-16, No Iterations 0
GAMG:  Solving for p, Initial residual = 6.234892118018347e-09, Final residual = 6.234892118018347e-09, No Iterations 0
GAMG:  Solving for p, Initial residual = 6.234892118018347e-09, Final residual = 6.234892118018347e-09, No Iterations 0
GAMG:  Solving for p, Initial residual = 6.234892118018347e-09, Final residual = 6.234892118018347e-09, No Iterations 0
GAMG:  Solving for p, Initial residual = 6.234892118018347e-09, Final residual = 6.234892118018347e-09, No Iterations 0
time step continuity errors : sum local = 1.072785745591828e-12, global = -4.751934651161658e-13, cumulative = -8.981892595053535e-10
smoothSolver:  Solving for omega, Initial residual = 8.5538491480137e-09, Final residual = 8.5538491480137e-09, No Iterations 0
smoothSolver:  Solving for k, Initial residual = 9.658215333105403e-09, Final residual = 9.658215333105403e-09, No Iterations 0
ExecutionTime = 1.91 s  ClockTime = 2 s

Time = 995

smoothSolver:  Solving for Ux, Initial residual = 7.078976286752788e-14, Final residual = 7.078976286752788e-14, No Iterations 0
smoothSolver:  Solving for Uy, Initial residual = 1.089718050806782e-06, Final residual = 2.344345158902934e-09, No Iterations 2
smoothSolver:  Solving for Uz, Initial residual = 8.330575134440819e-16, Final residual = 8.330575134440819e-16, No Iterations 0
GAMG:  Solving for p, Initial residual = 6.234863693516282e-09, Final residual = 6.234863693516282e-09, No Iterations 0
GAMG:  Solving for p, Initial residual = 6.234863693516282e-09, Final residual = 6.234863693516282e-09, No Iterations 0
GAMG:  Solving for p, Initial residual = 6.234863693516282e-09, Final residual = 6.234863693516282e-09, No Iterations 0
GAMG:  Solving for p, Initial residual = 6.234863693516282e-09, Final residual = 6.234863693516282e-09, No Iterations 0
time step continuity errors : sum local = 1.072782188813424e-12, global = -4.751943634489741e-13, cumulative = -8.986644538688025e-10
smoothSolver:  Solving for omega, Initial residual = 8.553849148536409e-09, Final residual = 8.553849148536409e-09, No Iterations 0
smoothSolver:  Solving for k, Initial residual = 9.658214686064933e-09, Final residual = 9.658214686064933e-09, No Iterations 0
ExecutionTime = 1.91 s  ClockTime = 2 s

Time = 996

smoothSolver:  Solving for Ux, Initial residual = 7.078976286752796e-14, Final residual = 7.078976286752796e-14, No Iterations 0
smoothSolver:  Solving for Uy, Initial residual = 1.092292043971391e-06, Final residual = 2.344823571470152e-09, No Iterations 2
smoothSolver:  Solving for Uz, Initial residual = 1.096290824623537e-15, Final residual = 1.096290824623537e-15, No Iterations 0
GAMG:  Solving for p, Initial residual = 6.234897233036103e-09, Final residual = 6.234897233036103e-09, No Iterations 0
GAMG:  Solving for p, Initial residual = 6.234897233036103e-09, Final residual = 6.234897233036103e-09, No Iterations 0
GAMG:  Solving for p, Initial residual = 6.234897233036103e-09, Final residual = 6.234897233036103e-09, No Iterations 0
GAMG:  Solving for p, Initial residual = 6.234897233036103e-09, Final residual = 6.234897233036103e-09, No Iterations 0
time step continuity errors : sum local = 1.072786624347839e-12, global = -4.751934604868258e-13, cumulative = -8.991396473292892e-10
smoothSolver:  Solving for omega, Initial residual = 8.5538491480137e-09, Final residual = 8.5538491480137e-09, No Iterations 0
smoothSolver:  Solving for k, Initial residual = 9.658215462513497e-09, Final residual = 9.658215462513497e-09, No Iterations 0
ExecutionTime = 1.91 s  ClockTime = 2 s

Time = 997

smoothSolver:  Solving for Ux, Initial residual = 7.173996102682362e-14, Final residual = 7.173996102682362e-14, No Iterations 0
smoothSolver:  Solving for Uy, Initial residual = 1.092993382137801e-06, Final residual = 2.341131142250176e-09, No Iterations 2
smoothSolver:  Solving for Uz, Initial residual = 8.46527613034674e-16, Final residual = 8.46527613034674e-16, No Iterations 0
GAMG:  Solving for p, Initial residual = 6.234861169718948e-09, Final residual = 6.234861169718948e-09, No Iterations 0
GAMG:  Solving for p, Initial residual = 6.234861169718948e-09, Final residual = 6.234861169718948e-09, No Iterations 0
GAMG:  Solving for p, Initial residual = 6.234861169718948e-09, Final residual = 6.234861169718948e-09, No Iterations 0
GAMG:  Solving for p, Initial residual = 6.234861169718948e-09, Final residual = 6.234861169718948e-09, No Iterations 0
time step continuity errors : sum local = 1.072780423117649e-12, global = -4.751934654450259e-13, cumulative = -8.996148407947343e-10
smoothSolver:  Solving for omega, Initial residual = 8.553849148536409e-09, Final residual = 8.553849148536409e-09, No Iterations 0
smoothSolver:  Solving for k, Initial residual = 9.658214686064932e-09, Final residual = 9.658214686064932e-09, No Iterations 0
ExecutionTime = 1.91 s  ClockTime = 2 s

Time = 998

smoothSolver:  Solving for Ux, Initial residual = 7.126486194717583e-14, Final residual = 7.126486194717583e-14, No Iterations 0
smoothSolver:  Solving for Uy, Initial residual = 1.089921540755729e-06, Final residual = 2.339944567394823e-09, No Iterations 2
smoothSolver:  Solving for Uz, Initial residual = 8.555719778224323e-16, Final residual = 8.555719778224323e-16, No Iterations 0
GAMG:  Solving for p, Initial residual = 6.234899873878654e-09, Final residual = 6.234899873878654e-09, No Iterations 0
GAMG:  Solving for p, Initial residual = 6.234899873878654e-09, Final residual = 6.234899873878654e-09, No Iterations 0
GAMG:  Solving for p, Initial residual = 6.234899873878654e-09, Final residual = 6.234899873878654e-09, No Iterations 0
GAMG:  Solving for p, Initial residual = 6.234899873878654e-09, Final residual = 6.234899873878654e-09, No Iterations 0
time step continuity errors : sum local = 1.072787079167941e-12, global = -4.751939135734121e-13, cumulative = -9.000900347083077e-10
smoothSolver:  Solving for omega, Initial residual = 8.5538491480137e-09, Final residual = 8.5538491480137e-09, No Iterations 0
smoothSolver:  Solving for k, Initial residual = 9.658215333105405e-09, Final residual = 9.658215333105405e-09, No Iterations 0
ExecutionTime = 1.92 s  ClockTime = 2 s

Time = 999

smoothSolver:  Solving for Ux, Initial residual = 7.031466378788001e-14, Final residual = 7.031466378788001e-14, No Iterations 0
smoothSolver:  Solving for Uy, Initial residual = 1.091786929935142e-06, Final residual = 2.343230595708788e-09, No Iterations 2
smoothSolver:  Solving for Uz, Initial residual = 1.094225558884477e-15, Final residual = 1.094225558884477e-15, No Iterations 0
GAMG:  Solving for p, Initial residual = 6.234868837047073e-09, Final residual = 6.234868837047073e-09, No Iterations 0
GAMG:  Solving for p, Initial residual = 6.234868837047073e-09, Final residual = 6.234868837047073e-09, No Iterations 0
GAMG:  Solving for p, Initial residual = 6.234868837047073e-09, Final residual = 6.234868837047073e-09, No Iterations 0
GAMG:  Solving for p, Initial residual = 6.234868837047073e-09, Final residual = 6.234868837047073e-09, No Iterations 0
time step continuity errors : sum local = 1.072781742276539e-12, global = -4.751939044624659e-13, cumulative = -9.005652286127701e-10
smoothSolver:  Solving for omega, Initial residual = 8.553849148536409e-09, Final residual = 8.553849148536409e-09, No Iterations 0
smoothSolver:  Solving for k, Initial residual = 9.658214815473024e-09, Final residual = 9.658214815473024e-09, No Iterations 0
ExecutionTime = 1.92 s  ClockTime = 2 s

Time = 1000

smoothSolver:  Solving for Ux, Initial residual = 7.221506010647157e-14, Final residual = 7.221506010647157e-14, No Iterations 0
smoothSolver:  Solving for Uy, Initial residual = 1.093750317299552e-06, Final residual = 2.342889667037925e-09, No Iterations 2
smoothSolver:  Solving for Uz, Initial residual = 8.662607103161879e-16, Final residual = 8.662607103161879e-16, No Iterations 0
GAMG:  Solving for p, Initial residual = 6.234889518133746e-09, Final residual = 6.234889518133746e-09, No Iterations 0
GAMG:  Solving for p, Initial residual = 6.234889518133746e-09, Final residual = 6.234889518133746e-09, No Iterations 0
GAMG:  Solving for p, Initial residual = 6.234889518133746e-09, Final residual = 6.234889518133746e-09, No Iterations 0
GAMG:  Solving for p, Initial residual = 6.234889518133746e-09, Final residual = 6.234889518133746e-09, No Iterations 0
time step continuity errors : sum local = 1.072785297687788e-12, global = -4.751930252771273e-13, cumulative = -9.010404216380472e-10
smoothSolver:  Solving for omega, Initial residual = 8.5538491480137e-09, Final residual = 8.5538491480137e-09, No Iterations 0
smoothSolver:  Solving for k, Initial residual = 9.658215333105403e-09, Final residual = 9.658215333105403e-09, No Iterations 0
ExecutionTime = 1.92 s  ClockTime = 2 s

yPlus yPlus write:
    writing field yPlus
    patch wall y+ : min = 29350.98207113095, max = 29438.0080235413, average = 29395.09928965876
End

